439201
  Marvin  12310709273D          

149153  0  0  1  0            999 V2000
   -3.5929    2.9919   -1.4736 O   0  0  0  0  0  0  0  0  0  0  0  0
   -6.6969    2.5770   -2.0706 O   0  0  0  0  0  0  0  0  0  0  0  0
   -1.9943    3.4947    1.0951 O   0  0  0  0  0  0  0  0  0  0  0  0
    6.2387   -2.4312   -0.2534 O   0  0  0  0  0  0  0  0  0  0  0  0
    2.6746   -2.3846    2.3481 O   0  0  0  0  0  0  0  0  0  0  0  0
    8.4594    1.2163    0.0163 O   0  0  0  0  0  0  0  0  0  0  0  0
    2.7767    3.6547    0.6992 O   0  0  0  0  0  0  0  0  0  0  0  0
    3.8444    0.2061    0.8395 O   0  0  0  0  0  0  0  0  0  0  0  0
    0.1438   -4.0108    0.1903 O   0  0  0  0  0  0  0  0  0  0  0  0
    0.5100   -7.7218   -0.2003 O   0  0  0  0  0  0  0  0  0  0  0  0
    2.0998   -7.9703   -1.5013 O   0  0  0  0  0  0  0  0  0  0  0  0
   -2.9686    5.0350   -1.0590 N   0  0  0  0  0  0  0  0  0  0  0  0
   -5.9021    3.0595   -0.0916 N   0  0  0  0  0  0  0  0  0  0  0  0
    5.8446   -2.2342    1.8847 N   0  0  0  0  0  0  0  0  0  0  0  0
    0.0925    3.6776    0.4572 N   0  0  0  0  0  0  0  0  0  0  0  0
   -9.2093    2.3839   -0.8957 N   0  0  0  0  0  0  0  0  0  0  0  0
    3.2171   -2.9246    0.2903 N   0  0  0  0  0  0  0  0  0  0  0  0
    5.9221    0.6398    1.3315 N   0  0  0  0  0  0  0  0  0  0  0  0
    2.7771    2.1242    2.2769 N   0  0  0  0  0  0  0  0  0  0  0  0
   -9.8392   -2.9610   -0.0264 N   0  0  0  0  0  0  0  0  0  0  0  0
    1.6083   -4.9904   -1.1199 N   0  0  0  0  0  0  0  0  0  0  0  0
   -8.6249   -4.5896    1.0029 N   0  0  0  0  0  0  0  0  0  0  0  0
  -10.8193   -4.5395    1.1242 N   0  0  0  0  0  0  0  0  0  0  0  0
    0.6985   -3.4331   -6.1221 N   0  0  0  0  0  0  0  0  0  0  0  0
    1.1230   -3.7584   -8.3248 N   0  0  0  0  0  0  0  0  0  0  0  0
    0.4160   -1.8105   -7.5768 N   0  0  0  0  0  0  0  0  0  0  0  0
   -5.2259    4.2614   -0.4233 C   0  0  1  0  0  0  0  0  0  0  0  0
   -5.2616    5.0007    0.9478 C   0  0  0  0  0  0  0  0  0  0  0  0
   -1.5944    4.8345   -0.7811 C   0  0  1  0  0  0  0  0  0  0  0  0
   -5.7082    3.9497    1.9791 C   0  0  0  0  0  0  0  0  0  0  0  0
   -5.5283    2.6435    1.1980 C   0  0  0  0  0  0  0  0  0  0  0  0
   -1.0582    6.2678   -0.5465 C   0  0  0  0  0  0  0  0  0  0  0  0
   -3.2650    6.3454   -1.4708 C   0  0  0  0  0  0  0  0  0  0  0  0
   -3.8892    4.0901   -1.0136 C   0  0  0  0  0  0  0  0  0  0  0  0
   -1.9559    7.1508   -1.4193 C   0  0  0  0  0  0  0  0  0  0  0  0
   -6.8169    2.4849   -0.8516 C   0  0  0  0  0  0  0  0  0  0  0  0
   -1.1716    3.9522    0.3107 C   0  0  0  0  0  0  0  0  0  0  0  0
   -7.9881    1.7390   -0.3879 C   0  0  2  0  0  0  0  0  0  0  0  0
    4.8348   -3.2184    2.0419 C   0  0  1  0  0  0  0  0  0  0  0  0
   -7.9103    0.2342   -0.7714 C   0  0  0  0  0  0  0  0  0  0  0  0
    4.9147   -3.6418    3.5375 C   0  0  0  0  0  0  0  0  0  0  0  0
    5.6008   -2.4472    4.2058 C   0  0  0  0  0  0  0  0  0  0  0  0
    6.5260   -1.9635    3.0819 C   0  0  0  0  0  0  0  0  0  0  0  0
   -9.0071   -0.6854   -0.1735 C   0  0  0  0  0  0  0  0  0  0  0  0
    0.7032    2.8835    1.4349 C   0  0  0  0  0  0  0  0  0  0  0  0
    6.2048   -1.6992    0.7312 C   0  0  0  0  0  0  0  0  0  0  0  0
    3.5070   -2.8180    1.5608 C   0  0  0  0  0  0  0  0  0  0  0  0
    6.5584   -0.2932    0.4912 C   0  0  2  0  0  0  0  0  0  0  0  0
   -8.8852   -2.1551   -0.6456 C   0  0  0  0  0  0  0  0  0  0  0  0
    2.1547    2.9107    1.4478 C   0  0  0  0  0  0  0  0  0  0  0  0
    1.9936   -2.7228   -0.3672 C   0  0  1  0  0  0  0  0  0  0  0  0
    4.1575    1.8846    2.4178 C   0  0  2  0  0  0  0  0  0  0  0  0
    8.0956   -0.0769    0.4927 C   0  0  0  0  0  0  0  0  0  0  0  0
    4.6473    0.8711    1.4812 C   0  0  0  0  0  0  0  0  0  0  0  0
    2.2046   -2.1810   -1.8140 C   0  0  0  0  0  0  0  0  0  0  0  0
    4.4517    1.4892    3.8974 C   0  0  0  0  0  0  0  0  0  0  0  0
    1.2101   -3.9642   -0.4125 C   0  0  0  0  0  0  0  0  0  0  0  0
    2.9182   -0.9042   -2.0724 C   0  0  0  0  0  0  0  0  0  0  0  0
    3.8744    2.3654    4.9573 C   0  0  0  0  0  0  0  0  0  0  0  0
    0.8517   -5.9924   -1.7550 C   0  0  1  0  0  0  0  0  0  0  0  0
   -9.7346   -4.0168    0.6936 C   0  0  0  0  0  0  0  0  0  0  0  0
    1.0975   -5.9853   -3.3001 C   0  0  0  0  0  0  0  0  0  0  0  0
    4.1447   -0.8913   -2.7789 C   0  0  0  0  0  0  0  0  0  0  0  0
    2.3502    0.3349   -1.6928 C   0  0  0  0  0  0  0  0  0  0  0  0
    2.9146    1.8716    5.8732 C   0  0  0  0  0  0  0  0  0  0  0  0
    4.2736    3.7180    5.0771 C   0  0  0  0  0  0  0  0  0  0  0  0
    0.5917   -4.7421   -4.0804 C   0  0  0  0  0  0  0  0  0  0  0  0
    1.1656   -7.2725   -1.1341 C   0  0  0  0  0  0  0  0  0  0  0  0
    4.7847    0.3184   -3.1039 C   0  0  0  0  0  0  0  0  0  0  0  0
    2.9892    1.5480   -2.0139 C   0  0  0  0  0  0  0  0  0  0  0  0
    4.2065    1.5390   -2.7169 C   0  0  0  0  0  0  0  0  0  0  0  0
    2.3654    2.6983    6.8718 C   0  0  0  0  0  0  0  0  0  0  0  0
    3.7261    4.5508    6.0723 C   0  0  0  0  0  0  0  0  0  0  0  0
    1.0237   -4.6705   -5.5649 C   0  0  0  0  0  0  0  0  0  0  0  0
    2.7711    4.0404    6.9688 C   0  0  0  0  0  0  0  0  0  0  0  0
    0.7526   -3.0232   -7.3369 C   0  0  0  0  0  0  0  0  0  0  0  0
   -5.7941    4.8660   -1.1409 H   0  0  0  0  0  0  0  0  0  0  0  0
   -5.9726    5.8325    0.9296 H   0  0  0  0  0  0  0  0  0  0  0  0
   -4.2953    5.4146    1.2478 H   0  0  0  0  0  0  0  0  0  0  0  0
   -1.1566    4.4389   -1.7065 H   0  0  0  0  0  0  0  0  0  0  0  0
   -5.1138    3.9692    2.8957 H   0  0  0  0  0  0  0  0  0  0  0  0
   -6.7626    4.0877    2.2405 H   0  0  0  0  0  0  0  0  0  0  0  0
   -4.4838    2.3140    1.2198 H   0  0  0  0  0  0  0  0  0  0  0  0
   -6.0923    1.8308    1.6582 H   0  0  0  0  0  0  0  0  0  0  0  0
   -0.0052    6.3693   -0.8240 H   0  0  0  0  0  0  0  0  0  0  0  0
   -1.1682    6.5725    0.5007 H   0  0  0  0  0  0  0  0  0  0  0  0
   -3.6605    6.3545   -2.4916 H   0  0  0  0  0  0  0  0  0  0  0  0
   -4.0032    6.8269   -0.8241 H   0  0  0  0  0  0  0  0  0  0  0  0
   -1.5252    7.2622   -2.4184 H   0  0  0  0  0  0  0  0  0  0  0  0
   -2.0928    8.1469   -0.9877 H   0  0  0  0  0  0  0  0  0  0  0  0
   -8.1040    1.8061    0.6949 H   0  0  0  0  0  0  0  0  0  0  0  0
    5.1169   -4.1177    1.4805 H   0  0  0  0  0  0  0  0  0  0  0  0
   -6.9436   -0.1564   -0.4374 H   0  0  0  0  0  0  0  0  0  0  0  0
   -7.9381    0.1463   -1.8612 H   0  0  0  0  0  0  0  0  0  0  0  0
    5.5458   -4.5275    3.6651 H   0  0  0  0  0  0  0  0  0  0  0  0
    3.9541   -3.8653    4.0101 H   0  0  0  0  0  0  0  0  0  0  0  0
    4.8633   -1.6835    4.4595 H   0  0  0  0  0  0  0  0  0  0  0  0
    6.1458   -2.7166    5.1138 H   0  0  0  0  0  0  0  0  0  0  0  0
    7.4615   -2.5339    3.0955 H   0  0  0  0  0  0  0  0  0  0  0  0
    6.7783   -0.9166    3.2615 H   0  0  0  0  0  0  0  0  0  0  0  0
    0.6628    4.0506   -0.1835 H   0  0  0  0  0  0  0  0  0  0  0  0
   -8.9357   -0.6580    0.9178 H   0  0  0  0  0  0  0  0  0  0  0  0
   -9.9952   -0.3084   -0.4512 H   0  0  0  0  0  0  0  0  0  0  0  0
   -9.2229    3.3355   -0.5201 H   0  0  0  0  0  0  0  0  0  0  0  0
  -10.0071    1.9006   -0.4781 H   0  0  0  0  0  0  0  0  0  0  0  0
    0.3747    1.8518    1.2765 H   0  0  0  0  0  0  0  0  0  0  0  0
    0.3623    3.2027    2.4245 H   0  0  0  0  0  0  0  0  0  0  0  0
    6.2354   -0.0275   -0.5219 H   0  0  0  0  0  0  0  0  0  0  0  0
   -9.0684   -2.2124   -1.7209 H   0  0  0  0  0  0  0  0  0  0  0  0
   -7.8651   -2.5099   -0.4716 H   0  0  0  0  0  0  0  0  0  0  0  0
    3.9220   -3.1932   -0.2622 H   0  0  0  0  0  0  0  0  0  0  0  0
    1.4238   -1.9446    0.1555 H   0  0  0  0  0  0  0  0  0  0  0  0
    6.4915    1.1648    1.8569 H   0  0  0  0  0  0  0  0  0  0  0  0
    4.7042    2.8118    2.2133 H   0  0  0  0  0  0  0  0  0  0  0  0
    8.5147   -0.2002    1.4934 H   0  0  0  0  0  0  0  0  0  0  0  0
    8.5886   -0.7950   -0.1670 H   0  0  0  0  0  0  0  0  0  0  0  0
    2.2262    1.6181    2.8394 H   0  0  0  0  0  0  0  0  0  0  0  0
    1.2175   -2.0405   -2.2647 H   0  0  0  0  0  0  0  0  0  0  0  0
    2.7033   -2.9692   -2.3854 H   0  0  0  0  0  0  0  0  0  0  0  0
    5.5327    1.4524    4.0602 H   0  0  0  0  0  0  0  0  0  0  0  0
    4.0936    0.4670    4.0360 H   0  0  0  0  0  0  0  0  0  0  0  0
    2.5298   -5.0326   -1.2777 H   0  0  0  0  0  0  0  0  0  0  0  0
    8.0630    1.8522    0.6479 H   0  0  0  0  0  0  0  0  0  0  0  0
   -0.2234   -5.8205   -1.6277 H   0  0  0  0  0  0  0  0  0  0  0  0
    0.6072   -6.8554   -3.7475 H   0  0  0  0  0  0  0  0  0  0  0  0
    2.1707   -6.0952   -3.4850 H   0  0  0  0  0  0  0  0  0  0  0  0
    4.5866   -1.7629   -3.0827 H   0  0  0  0  0  0  0  0  0  0  0  0
    1.4622    0.3678   -1.1864 H   0  0  0  0  0  0  0  0  0  0  0  0
    2.5979    0.8997    5.8286 H   0  0  0  0  0  0  0  0  0  0  0  0
    4.9696    4.1129    4.4407 H   0  0  0  0  0  0  0  0  0  0  0  0
   -0.4980   -4.6846   -4.0115 H   0  0  0  0  0  0  0  0  0  0  0  0
    0.9798   -3.8534   -3.6040 H   0  0  0  0  0  0  0  0  0  0  0  0
    5.6646    0.3067   -3.6241 H   0  0  0  0  0  0  0  0  0  0  0  0
    2.5662    2.4370   -1.7420 H   0  0  0  0  0  0  0  0  0  0  0  0
    4.6709    2.4190   -2.9520 H   0  0  0  0  0  0  0  0  0  0  0  0
   -8.6131   -5.3258    1.5834 H   0  0  0  0  0  0  0  0  0  0  0  0
   -7.8206   -4.2732    0.6444 H   0  0  0  0  0  0  0  0  0  0  0  0
  -11.6477   -4.1355    0.9506 H   0  0  0  0  0  0  0  0  0  0  0  0
  -10.7836   -5.3381    1.6101 H   0  0  0  0  0  0  0  0  0  0  0  0
    1.6734    2.3236    7.5245 H   0  0  0  0  0  0  0  0  0  0  0  0
    4.0223    5.5268    6.1450 H   0  0  0  0  0  0  0  0  0  0  0  0
    0.5284   -5.4741   -6.1149 H   0  0  0  0  0  0  0  0  0  0  0  0
    2.1064   -4.8073   -5.6490 H   0  0  0  0  0  0  0  0  0  0  0  0
    2.3715    4.6432    7.6922 H   0  0  0  0  0  0  0  0  0  0  0  0
   -0.1728   -7.2778    0.1329 H   0  0  0  0  0  0  0  0  0  0  0  0
    1.4396   -4.6267   -8.1722 H   0  0  0  0  0  0  0  0  0  0  0  0
    1.0768   -3.4313   -9.2011 H   0  0  0  0  0  0  0  0  0  0  0  0
    0.2094   -1.2247   -6.8750 H   0  0  0  0  0  0  0  0  0  0  0  0
    0.3853   -1.5006   -8.4600 H   0  0  0  0  0  0  0  0  0  0  0  0
  1 34  2  0  0  0  0
  2 36  2  0  0  0  0
  3 37  2  0  0  0  0
  4 46  2  0  0  0  0
  5 47  2  0  0  0  0
  6 53  1  0  0  0  0
  6123  1  0  0  0  0
  7 50  2  0  0  0  0
  8 54  2  0  0  0  0
  9 57  2  0  0  0  0
 10 68  1  0  0  0  0
 10145  1  0  0  0  0
 11 68  2  0  0  0  0
 12 29  1  0  0  0  0
 12 33  1  0  0  0  0
 12 34  1  0  0  0  0
 13 27  1  0  0  0  0
 13 31  1  0  0  0  0
 13 36  1  0  0  0  0
 14 39  1  0  0  0  0
 14 43  1  0  0  0  0
 14 46  1  0  0  0  0
 15 37  1  0  0  0  0
 15 45  1  0  0  0  0
 15101  1  0  0  0  0
 38 16  1  0  0  0  0
 16104  1  0  0  0  0
 16105  1  0  0  0  0
 17 47  1  0  0  0  0
 51 17  1  0  0  0  0
 17111  1  0  0  0  0
 48 18  1  0  0  0  0
 18 54  1  0  0  0  0
 18113  1  0  0  0  0
 19 50  1  0  0  0  0
 52 19  1  0  0  0  0
 19117  1  0  0  0  0
 20 49  1  0  0  0  0
 20 61  2  0  0  0  0
 21 57  1  0  0  0  0
 60 21  1  0  0  0  0
 21122  1  0  0  0  0
 22 61  1  0  0  0  0
 22136  1  0  0  0  0
 22137  1  0  0  0  0
 23 61  1  0  0  0  0
 23138  1  0  0  0  0
 23139  1  0  0  0  0
 24 74  1  0  0  0  0
 24 76  2  0  0  0  0
 25 76  1  0  0  0  0
 25146  1  0  0  0  0
 25147  1  0  0  0  0
 26 76  1  0  0  0  0
 26148  1  0  0  0  0
 26149  1  0  0  0  0
 27 28  1  0  0  0  0
 27 34  1  0  0  0  0
 27 77  1  0  0  0  0
 28 30  1  0  0  0  0
 28 78  1  0  0  0  0
 28 79  1  0  0  0  0
 29 32  1  0  0  0  0
 29 37  1  0  0  0  0
 29 80  1  0  0  0  0
 30 31  1  0  0  0  0
 30 81  1  0  0  0  0
 30 82  1  0  0  0  0
 31 83  1  0  0  0  0
 31 84  1  0  0  0  0
 32 35  1  0  0  0  0
 32 85  1  0  0  0  0
 32 86  1  0  0  0  0
 33 35  1  0  0  0  0
 33 87  1  0  0  0  0
 33 88  1  0  0  0  0
 35 89  1  0  0  0  0
 35 90  1  0  0  0  0
 36 38  1  0  0  0  0
 38 40  1  0  0  0  0
 38 91  1  0  0  0  0
 39 41  1  0  0  0  0
 39 47  1  0  0  0  0
 39 92  1  0  0  0  0
 40 44  1  0  0  0  0
 40 93  1  0  0  0  0
 40 94  1  0  0  0  0
 41 42  1  0  0  0  0
 41 95  1  0  0  0  0
 41 96  1  0  0  0  0
 42 43  1  0  0  0  0
 42 97  1  0  0  0  0
 42 98  1  0  0  0  0
 43 99  1  0  0  0  0
 43100  1  0  0  0  0
 44 49  1  0  0  0  0
 44102  1  0  0  0  0
 44103  1  0  0  0  0
 45 50  1  0  0  0  0
 45106  1  0  0  0  0
 45107  1  0  0  0  0
 46 48  1  0  0  0  0
 48 53  1  0  0  0  0
 48108  1  0  0  0  0
 49109  1  0  0  0  0
 49110  1  0  0  0  0
 51 55  1  0  0  0  0
 51 57  1  0  0  0  0
 51112  1  0  0  0  0
 52 54  1  0  0  0  0
 52 56  1  0  0  0  0
 52114  1  0  0  0  0
 53115  1  0  0  0  0
 53116  1  0  0  0  0
 55 58  1  0  0  0  0
 55118  1  0  0  0  0
 55119  1  0  0  0  0
 56 59  1  0  0  0  0
 56120  1  0  0  0  0
 56121  1  0  0  0  0
 58 63  2  0  0  0  0
 58 64  1  0  0  0  0
 59 65  2  0  0  0  0
 59 66  1  0  0  0  0
 60 62  1  0  0  0  0
 60 68  1  0  0  0  0
 60124  1  0  0  0  0
 62 67  1  0  0  0  0
 62125  1  0  0  0  0
 62126  1  0  0  0  0
 63 69  1  0  0  0  0
 63127  1  0  0  0  0
 64 70  2  0  0  0  0
 64128  1  0  0  0  0
 65 72  1  0  0  0  0
 65129  1  0  0  0  0
 66 73  2  0  0  0  0
 66130  1  0  0  0  0
 67 74  1  0  0  0  0
 67131  1  0  0  0  0
 67132  1  0  0  0  0
 69 71  2  0  0  0  0
 69133  1  0  0  0  0
 70 71  1  0  0  0  0
 70134  1  0  0  0  0
 71135  1  0  0  0  0
 72 75  2  0  0  0  0
 72140  1  0  0  0  0
 73 75  1  0  0  0  0
 73141  1  0  0  0  0
 74142  1  0  0  0  0
 74143  1  0  0  0  0
 75144  1  0  0  0  0
M  END

> <PUBCHEM_BONDANNOTATIONS>
38  16  5
51  17  6
48  18  5
52  19  6
60  21  6
27  34  5
29  37  5
39  47  5
58  63  8
58  64  8
59  65  8
59  66  8
63  69  8
64  70  8
65  72  8
66  73  8
69  71  8
70  71  8
72  75  8
73  75  8

> <StdInChI>
InChI=1S/C50H73N15O11/c51-32(16-7-21-56-49(52)53)45(72)65-25-11-20-39(65)47(74)64-24-9-18-37(64)43(70)58-28-40(67)59-34(26-30-12-3-1-4-13-30)41(68)62-36(29-66)46(73)63-23-10-19-38(63)44(71)61-35(27-31-14-5-2-6-15-31)42(69)60-33(48(75)76)17-8-22-57-50(54)55/h1-6,12-15,32-39,66H,7-11,16-29,51H2,(H,58,70)(H,59,67)(H,60,69)(H,61,71)(H,62,68)(H,75,76)(H4,52,53,56)(H4,54,55,57)/t32-,33-,34-,35-,36-,37-,38-,39-/m0/s1

> <StdInChIKey>
QXZGBUJJYSLZLT-FDISYFBBSA-N

> <AuxInfo>
1/1/N:75,71,72,73,69,70,44,67,35,42,30,65,66,63,64,40,62,32,41,28,49,74,43,33,31,56,55,45,53,59,58,38,60,52,51,48,29,39,27,50,54,57,37,47,36,46,34,68,61,76,16,22,23,25,26,20,24,15,19,21,17,18,14,12,13,6,7,8,9,3,5,2,4,1,10,11/E:(3,4)(5,6)(12,13)(14,15)(52,53)(54,55)(75,76)/it:im/rA:149cOOOOOOOOOOONNNNNNNNNNNNNNNCCCCCCCCCCCCCCCCCCCCCCCCCCCCCCCCCCCCCCCCCCCCCCCCCCHHHHHHHHHHHHHHHHHHHHHHHHHHHHHHHHHHHHHHHHHHHHHHHHHHHHHHHHHHHHHHHHHHHHHHHHH/rB:;;;;;;;;;;;;;;;;;;;;;;;;;s13;s27;s12;s28;s13s30;s29;s12;d1s12s27;s32s33;d2s13;d3s15s29;s16s36;s14;s38;s39;s41;s14s42;s40;s15;d4s14;d5s17s39;s18s46;s20s44;d7s19s45;s17;s19;s6s48;d8s18s52;s51;s52;d9s21s51;s55;s56;s21;d20s22s23;s60;d58;s58;d59;s59;s62;s10d11s60;s63;d64;d69s70;s65;d66;s24s67;d72s73;d24s25s26;s27;s28;s28;s29;s30;s30;s31;s31;s32;s32;s33;s33;s35;s35;s38;s39;s40;s40;s41;s41;s42;s42;s43;s43;s15;s44;s44;s16;s16;s45;s45;s48;s49;s49;s17;s51;s18;s52;s53;s53;s19;s55;s55;s56;s56;s21;s6;s60;s62;s62;s63;s64;s65;s66;s67;s67;s69;s70;s71;s22;s22;s23;s23;s72;s73;s74;s74;s75;s10;s25;s25;s26;s26;/rC:-3.5929,2.9919,-1.4736;-6.6969,2.577,-2.0706;-1.9943,3.4947,1.0951;6.2387,-2.4312,-.2534;2.6746,-2.3846,2.3481;8.4594,1.2163,.0163;2.7767,3.6547,.6992;3.8444,.2061,.8395;.1438,-4.0108,.1903;.51,-7.7218,-.2003;2.0998,-7.9703,-1.5013;-2.9686,5.035,-1.059;-5.9021,3.0595,-.0916;5.8446,-2.2342,1.8847;.0925,3.6776,.4572;-9.2093,2.3839,-.8957;3.2171,-2.9246,.2903;5.9221,.6398,1.3315;2.7771,2.1242,2.2769;-9.8392,-2.961,-.0264;1.6083,-4.9904,-1.1199;-8.6249,-4.5896,1.0029;-10.8193,-4.5395,1.1242;.6985,-3.4331,-6.1221;1.123,-3.7584,-8.3248;.416,-1.8105,-7.5768;-5.2259,4.2614,-.4233;-5.2616,5.0007,.9478;-1.5944,4.8345,-.7811;-5.7082,3.9497,1.9791;-5.5283,2.6435,1.198;-1.0582,6.2678,-.5465;-3.265,6.3454,-1.4708;-3.8892,4.0901,-1.0136;-1.9559,7.1508,-1.4193;-6.8169,2.4849,-.8516;-1.1716,3.9522,.3107;-7.9881,1.739,-.3879;4.8348,-3.2184,2.0419;-7.9103,.2342,-.7714;4.9147,-3.6418,3.5375;5.6008,-2.4472,4.2058;6.526,-1.9635,3.0819;-9.0071,-.6854,-.1735;.7032,2.8835,1.4349;6.2048,-1.6992,.7312;3.507,-2.818,1.5608;6.5584,-.2932,.4912;-8.8852,-2.1551,-.6456;2.1547,2.9107,1.4478;1.9936,-2.7228,-.3672;4.1575,1.8846,2.4178;8.0956,-.0769,.4927;4.6473,.8711,1.4812;2.2046,-2.181,-1.814;4.4517,1.4892,3.8974;1.2101,-3.9642,-.4125;2.9182,-.9042,-2.0724;3.8744,2.3654,4.9573;.8517,-5.9924,-1.755;-9.7346,-4.0168,.6936;1.0975,-5.9853,-3.3001;4.1447,-.8913,-2.7789;2.3502,.3349,-1.6928;2.9146,1.8716,5.8732;4.2736,3.718,5.0771;.5917,-4.7421,-4.0804;1.1656,-7.2725,-1.1341;4.7847,.3184,-3.1039;2.9892,1.548,-2.0139;4.2065,1.539,-2.7169;2.3654,2.6983,6.8718;3.7261,4.5508,6.0723;1.0237,-4.6705,-5.5649;2.7711,4.0404,6.9688;.7526,-3.0232,-7.3369;-5.7941,4.866,-1.1409;-5.9726,5.8325,.9296;-4.2953,5.4146,1.2478;-1.1566,4.4389,-1.7065;-5.1138,3.9692,2.8957;-6.7626,4.0877,2.2405;-4.4838,2.314,1.2198;-6.0923,1.8308,1.6582;-.0052,6.3693,-.824;-1.1682,6.5725,.5007;-3.6605,6.3545,-2.4916;-4.0032,6.8269,-.8241;-1.5252,7.2622,-2.4184;-2.0928,8.1469,-.9877;-8.104,1.8061,.6949;5.1169,-4.1177,1.4805;-6.9436,-.1564,-.4374;-7.9381,.1463,-1.8612;5.5458,-4.5275,3.6651;3.9541,-3.8653,4.0101;4.8633,-1.6835,4.4595;6.1458,-2.7166,5.1138;7.4615,-2.5339,3.0955;6.7783,-.9166,3.2615;.6628,4.0506,-.1835;-8.9357,-.658,.9178;-9.9952,-.3084,-.4512;-9.2229,3.3355,-.5201;-10.0071,1.9006,-.4781;.3747,1.8518,1.2765;.3623,3.2027,2.4245;6.2354,-.0275,-.5219;-9.0684,-2.2124,-1.7209;-7.8651,-2.5099,-.4716;3.922,-3.1932,-.2622;1.4238,-1.9446,.1555;6.4915,1.1648,1.8569;4.7042,2.8118,2.2133;8.5147,-.2002,1.4934;8.5886,-.795,-.167;2.2262,1.6181,2.8394;1.2175,-2.0405,-2.2647;2.7033,-2.9692,-2.3854;5.5327,1.4524,4.0602;4.0936,.467,4.036;2.5298,-5.0326,-1.2777;8.063,1.8522,.6479;-.2234,-5.8205,-1.6277;.6072,-6.8554,-3.7475;2.1707,-6.0952,-3.485;4.5866,-1.7629,-3.0827;1.4622,.3678,-1.1864;2.5979,.8997,5.8286;4.9696,4.1129,4.4407;-.498,-4.6846,-4.0115;.9798,-3.8534,-3.604;5.6646,.3067,-3.6241;2.5662,2.437,-1.742;4.6709,2.419,-2.952;-8.6131,-5.3258,1.5834;-7.8206,-4.2732,.6444;-11.6477,-4.1355,.9506;-10.7836,-5.3381,1.6101;1.6734,2.3236,7.5245;4.0223,5.5268,6.145;.5284,-5.4741,-6.1149;2.1064,-4.8073,-5.649;2.3715,4.6432,7.6922;-.1728,-7.2778,.1329;1.4396,-4.6267,-8.1722;1.0768,-3.4313,-9.2011;.2094,-1.2247,-6.875;.3853,-1.5006,-8.46;

> <Formula>
C50 H73 N15 O11

> <Mw>
1060.208

> <SMILES>
O=C([C@]1([H])C([H])([H])C([H])([H])C([H])([H])N1C([C@]([H])(C([H])([H])C([H])([H])C([H])([H])/N=C(/N([H])[H])\N([H])[H])N([H])[H])=O)N1C([H])([H])C([H])([H])C([H])([H])[C@@]1([H])C(N([H])C([H])([H])C(N([H])[C@@]([H])(C([H])([H])C1C([H])=C([H])C([H])=C([H])C=1[H])C(N([H])[C@@]([H])(C([H])([H])O[H])C(N1C([H])([H])C([H])([H])C([H])([H])[C@@]1([H])C(N([H])[C@]([H])(C(N([H])[C@]([H])(C(=O)O[H])C([H])([H])C([H])([H])C([H])([H])/N=C(/N([H])[H])\N([H])[H])=O)C([H])([H])C1C([H])=C([H])C([H])=C([H])C=1[H])=O)=O)=O)=O)=O

> <CSID>
388341

$$$$
