5893
  Marvin  12300703363D          

 72 76  0  0  1  0            999 V2000
   -0.8265   -2.0836    2.1334 P   0  0  2  0  0  0  0  0  0  0  0  0
   -1.5458   -0.4338    0.2088 P   0  0  2  0  0  0  0  0  0  0  0  0
    0.3699    1.4358    4.0776 O   0  0  0  0  0  0  0  0  0  0  0  0
    0.5884   -0.9163   -4.2179 O   0  0  0  0  0  0  0  0  0  0  0  0
    2.6770    0.4271    6.3513 O   0  0  0  0  0  0  0  0  0  0  0  0
    1.2146    2.4980    7.4172 O   0  0  0  0  0  0  0  0  0  0  0  0
   -2.9371   -1.3209   -3.6290 O   0  0  0  0  0  0  0  0  0  0  0  0
   -2.1158   -0.7912   -6.1875 O   0  0  0  0  0  0  0  0  0  0  0  0
   -0.0241   -1.1157    2.8716 O   0  0  0  0  0  0  0  0  0  0  0  0
   -1.3682   -0.4321   -1.2338 O   0  0  0  0  0  0  0  0  0  0  0  0
   -0.9787   -1.6607    0.7527 O   0  0  0  0  0  0  0  0  0  0  0  0
   -2.1173   -2.2972    2.7468 O   0  0  0  0  0  0  0  0  0  0  0  0
   -2.9663   -0.3653    0.4506 O   0  0  0  0  0  0  0  0  0  0  0  0
   -0.1396   -3.3498    2.1089 O   0  0  0  0  0  0  0  0  0  0  0  0
   -0.9349    0.7572    0.7448 O   0  0  0  0  0  0  0  0  0  0  0  0
    5.3476   -1.0866   -5.9779 O   0  0  0  0  0  0  0  0  0  0  0  0
   -0.2166    3.6102    4.9141 N   0  0  0  0  0  0  0  0  0  0  0  0
    1.2646   -2.1612   -6.0978 N   0  3  0  0  0  0  0  0  0  0  0  0
   -0.9584    5.7246    4.8801 N   0  0  0  0  0  0  0  0  0  0  0  0
   -2.4364    2.5466    4.8513 N   0  0  0  0  0  0  0  0  0  0  0  0
   -4.2382    4.0607    4.8485 N   0  0  0  0  0  0  0  0  0  0  0  0
   -3.9217    6.3386    4.9395 N   0  0  0  0  0  0  0  0  0  0  0  0
    5.8129   -2.3682   -7.5948 N   0  0  0  0  0  0  0  0  0  0  0  0
    1.2826    0.4158    6.0481 C   0  0  1  0  0  0  0  0  0  0  0  0
    0.6091    1.7641    6.3565 C   0  0  2  0  0  0  0  0  0  0  0  0
    1.0306    0.2391    4.5260 C   0  0  1  0  0  0  0  0  0  0  0  0
    0.6787    2.4898    4.9990 C   0  0  1  0  0  0  0  0  0  0  0  0
   -1.5821   -1.6339   -3.9456 C   0  0  1  0  0  0  0  0  0  0  0  0
   -1.2797   -1.6872   -5.4534 C   0  0  2  0  0  0  0  0  0  0  0  0
   -0.5784   -0.5722   -3.4648 C   0  0  1  0  0  0  0  0  0  0  0  0
    0.2283   -1.2875   -5.5596 C   0  0  1  0  0  0  0  0  0  0  0  0
    0.1976   -1.0200    4.1855 C   0  0  0  0  0  0  0  0  0  0  0  0
   -0.2509   -0.5891   -1.9547 C   0  0  0  0  0  0  0  0  0  0  0  0
   -1.5609    3.5855    4.8800 C   0  0  0  0  0  0  0  0  0  0  0  0
    0.1195    4.9189    4.8852 C   0  0  0  0  0  0  0  0  0  0  0  0
    2.5617   -1.6972   -6.1475 C   0  0  0  0  0  0  0  0  0  0  0  0
    1.0159   -3.4216   -6.5738 C   0  0  0  0  0  0  0  0  0  0  0  0
   -2.0185    4.9041    4.8846 C   0  0  0  0  0  0  0  0  0  0  0  0
    3.6455   -2.4505   -6.6723 C   0  0  0  0  0  0  0  0  0  0  0  0
    2.0247   -4.2420   -7.0964 C   0  0  0  0  0  0  0  0  0  0  0  0
    3.3328   -3.7479   -7.1387 C   0  0  0  0  0  0  0  0  0  0  0  0
   -3.4057    5.1381    4.8886 C   0  0  0  0  0  0  0  0  0  0  0  0
   -3.7736    2.7818    4.8275 C   0  0  0  0  0  0  0  0  0  0  0  0
    4.9470   -1.9580   -6.7366 C   0  0  0  0  0  0  0  0  0  0  0  0
    0.8330   -0.3699    6.6627 H   0  0  0  0  0  0  0  0  0  0  0  0
   -0.4340    1.5849    6.6365 H   0  0  0  0  0  0  0  0  0  0  0  0
    1.9825    0.1751    3.9872 H   0  0  0  0  0  0  0  0  0  0  0  0
    1.7084    2.8251    4.8172 H   0  0  0  0  0  0  0  0  0  0  0  0
   -1.3484   -2.6018   -3.4890 H   0  0  0  0  0  0  0  0  0  0  0  0
   -1.5505   -2.6766   -5.8132 H   0  0  0  0  0  0  0  0  0  0  0  0
   -0.9214    0.4327   -3.7403 H   0  0  0  0  0  0  0  0  0  0  0  0
    0.2720   -0.3649   -6.1507 H   0  0  0  0  0  0  0  0  0  0  0  0
    0.7409   -1.9034    4.5365 H   0  0  0  0  0  0  0  0  0  0  0  0
   -0.7510   -0.9582    4.7288 H   0  0  0  0  0  0  0  0  0  0  0  0
    0.4572    0.2194   -1.7478 H   0  0  0  0  0  0  0  0  0  0  0  0
    0.2411   -1.5372   -1.7131 H   0  0  0  0  0  0  0  0  0  0  0  0
    2.9926   -0.4723    6.1208 H   0  0  0  0  0  0  0  0  0  0  0  0
    1.1159    1.9248    8.2068 H   0  0  0  0  0  0  0  0  0  0  0  0
   -3.4642   -2.0565   -4.0073 H   0  0  0  0  0  0  0  0  0  0  0  0
   -1.8719   -0.9317   -7.1269 H   0  0  0  0  0  0  0  0  0  0  0  0
    1.0766    5.2786    4.8810 H   0  0  0  0  0  0  0  0  0  0  0  0
    2.7650   -0.7538   -5.8008 H   0  0  0  0  0  0  0  0  0  0  0  0
    0.0884   -3.8403   -6.5809 H   0  0  0  0  0  0  0  0  0  0  0  0
    1.8120   -5.1825   -7.4412 H   0  0  0  0  0  0  0  0  0  0  0  0
    4.0557   -4.3673   -7.5152 H   0  0  0  0  0  0  0  0  0  0  0  0
   -4.4292    2.0007    4.7985 H   0  0  0  0  0  0  0  0  0  0  0  0
   -2.6857   -2.8711    2.3979 H   0  0  0  0  0  0  0  0  0  0  0  0
   -3.4964   -1.0051    0.1602 H   0  0  0  0  0  0  0  0  0  0  0  0
   -4.8406    6.4589    4.8098 H   0  0  0  0  0  0  0  0  0  0  0  0
   -3.3790    7.0806    5.1157 H   0  0  0  0  0  0  0  0  0  0  0  0
    5.5682   -2.9938   -8.2461 H   0  0  0  0  0  0  0  0  0  0  0  0
    6.6888   -2.0407   -7.5838 H   0  0  0  0  0  0  0  0  0  0  0  0
  1  9  1  0  0  0  0
  1 11  1  0  0  0  0
  1 12  1  0  0  0  0
  1 14  2  0  0  0  0
  2 10  1  0  0  0  0
  2 11  1  0  0  0  0
  2 13  1  0  0  0  0
  2 15  2  0  0  0  0
  3 26  1  0  0  0  0
  3 27  1  0  0  0  0
  4 30  1  0  0  0  0
  4 31  1  0  0  0  0
 24  5  1  0  0  0  0
  5 57  1  0  0  0  0
 25  6  1  0  0  0  0
  6 58  1  0  0  0  0
 28  7  1  0  0  0  0
  7 59  1  0  0  0  0
 29  8  1  0  0  0  0
  8 60  1  0  0  0  0
  9 32  1  0  0  0  0
 10 33  1  0  0  0  0
 12 67  1  0  0  0  0
 13 68  1  0  0  0  0
 16 44  2  0  0  0  0
 27 17  1  0  0  0  0
 17 34  1  0  0  0  0
 17 35  1  0  0  0  0
 31 18  1  0  0  0  0
 18 36  1  0  0  0  0
 18 37  2  0  0  0  0
 19 35  2  0  0  0  0
 19 38  1  0  0  0  0
 20 34  2  0  0  0  0
 20 43  1  0  0  0  0
 21 42  1  0  0  0  0
 21 43  2  0  0  0  0
 22 42  1  0  0  0  0
 22 69  1  0  0  0  0
 22 70  1  0  0  0  0
 23 44  1  0  0  0  0
 23 71  1  0  0  0  0
 23 72  1  0  0  0  0
 24 25  1  0  0  0  0
 24 26  1  0  0  0  0
 24 45  1  0  0  0  0
 25 27  1  0  0  0  0
 25 46  1  0  0  0  0
 26 32  1  0  0  0  0
 26 47  1  0  0  0  0
 27 48  1  0  0  0  0
 28 29  1  0  0  0  0
 28 30  1  0  0  0  0
 28 49  1  0  0  0  0
 29 31  1  0  0  0  0
 29 50  1  0  0  0  0
 30 33  1  0  0  0  0
 30 51  1  0  0  0  0
 31 52  1  0  0  0  0
 32 53  1  0  0  0  0
 32 54  1  0  0  0  0
 33 55  1  0  0  0  0
 33 56  1  0  0  0  0
 34 38  1  0  0  0  0
 35 61  1  0  0  0  0
 36 39  2  0  0  0  0
 36 62  1  0  0  0  0
 37 40  1  0  0  0  0
 37 63  1  0  0  0  0
 38 42  2  0  0  0  0
 39 41  1  0  0  0  0
 39 44  1  0  0  0  0
 40 41  2  0  0  0  0
 40 64  1  0  0  0  0
 41 65  1  0  0  0  0
 43 66  1  0  0  0  0
M  CHG  1  18   1
M  END

> <PUBCHEM_BONDANNOTATIONS>
1  12  5
27  17  5
17  34  8
17  35  8
31  18  5
18  36  8
18  37  8
19  35  8
19  38  8
2  13  5
20  34  8
20  43  8
21  42  8
21  43  8
26  32  5
30  33  5
34  38  8
36  39  8
37  40  8
38  42  8
39  41  8
40  41  8
24  5  6
25  6  6
28  7  6
29  8  6

> <StdInChI>
InChI=1S/C21H27N7O14P2/c22-17-12-19(25-7-24-17)28(8-26-12)21-16(32)14(30)11(41-21)6-39-44(36,37)42-43(34,35)38-5-10-13(29)15(31)20(40-10)27-3-1-2-9(4-27)18(23)33/h1-4,7-8,10-11,13-16,20-21,29-32H,5-6H2,(H5-,22,23,24,25,33,34,35,36,37)/p+1/t10-,11-,13-,14-,15-,16-,20-,21-/m1/s1

> <StdInChIKey>
BAWFJGJZGIEFAR-NNYOXOHSSA-O

> <AuxInfo>
1/2/N:40,41,37,36,33,32,43,35,39,30,26,38,28,24,29,25,42,44,34,31,27,22,23,21,20,19,18,17,7,5,8,6,16,13,15,12,14,10,9,4,3,11,2,1/E:(34,35)(36,37)/it:im/CRV:27+1,36-1/rA:72cPPOOOOOOOOOOOOOONN+NNNNNCCCCCCCCCCCCCCCCCCCCCHHHHHHHHHHHHHHHHHHHHHHHHHHHH/rB:;;;;;;;s1;s2;s1s2;s1;s2;d1;d2;;;;;;;;;s5;s6s24;s3s24;s3s17s25;s7;s8s28;s4s28;s4s18s29;s9s26;s10s30;s17d20;s17d19;s18;d18;s19s34;d36;s37;s39d40;s21s22d38;s20d21;d16s23s39;s24;s25;s26;s27;s28;s29;s30;s31;s32;s32;s33;s33;s5;s6;s7;s8;s35;s36;s37;s40;s41;s43;s12;s13;s22;s22;s23;s23;/rC:-.8265,-2.0836,2.1334;-1.5458,-.4338,.2088;.3699,1.4358,4.0776;.5884,-.9163,-4.2179;2.677,.4271,6.3513;1.2146,2.498,7.4172;-2.9371,-1.3209,-3.629;-2.1158,-.7912,-6.1875;-.0241,-1.1157,2.8716;-1.3682,-.4321,-1.2338;-.9787,-1.6607,.7527;-2.1173,-2.2972,2.7468;-2.9663,-.3653,.4506;-.1396,-3.3498,2.1089;-.9349,.7572,.7448;5.3476,-1.0866,-5.9779;-.2166,3.6102,4.9141;1.2646,-2.1612,-6.0978;-.9584,5.7246,4.8801;-2.4364,2.5466,4.8513;-4.2382,4.0607,4.8485;-3.9217,6.3386,4.9395;5.8129,-2.3682,-7.5948;1.2826,.4158,6.0481;.6091,1.7641,6.3565;1.0306,.2391,4.526;.6787,2.4898,4.999;-1.5821,-1.6339,-3.9456;-1.2797,-1.6872,-5.4534;-.5784,-.5722,-3.4648;.2283,-1.2875,-5.5596;.1976,-1.02,4.1855;-.2509,-.5891,-1.9547;-1.5609,3.5855,4.88;.1195,4.9189,4.8852;2.5617,-1.6972,-6.1475;1.0159,-3.4216,-6.5738;-2.0185,4.9041,4.8846;3.6455,-2.4505,-6.6723;2.0247,-4.242,-7.0964;3.3328,-3.7479,-7.1387;-3.4057,5.1381,4.8886;-3.7736,2.7818,4.8275;4.947,-1.958,-6.7366;.833,-.3699,6.6627;-.434,1.5849,6.6365;1.9825,.1751,3.9872;1.7084,2.8251,4.8172;-1.3484,-2.6018,-3.489;-1.5505,-2.6766,-5.8132;-.9214,.4327,-3.7403;.272,-.3649,-6.1507;.7409,-1.9034,4.5365;-.751,-.9582,4.7288;.4572,.2194,-1.7478;.2411,-1.5372,-1.7131;2.9926,-.4723,6.1208;1.1159,1.9248,8.2068;-3.4642,-2.0565,-4.0073;-1.8719,-.9317,-7.1269;1.0766,5.2786,4.881;2.765,-.7538,-5.8008;.0884,-3.8403,-6.5809;1.812,-5.1825,-7.4412;4.0557,-4.3673,-7.5152;-4.4292,2.0007,4.7985;-2.6857,-2.8711,2.3979;-3.4964,-1.0051,.1602;-4.8406,6.4589,4.8098;-3.379,7.0806,5.1157;5.5682,-2.9938,-8.2461;6.6888,-2.0407,-7.5838;

> <Formula>
C21 H28 N7 O14 P2

> <Mw>
664.433

> <SMILES>
[P@](=O)(O[H])(O[P@](=O)(O[H])OC([H])([H])[C@]1([H])[C@]([H])([C@]([H])([C@]([H])([N+]2=C([H])C([H])=C([H])C(C(N([H])[H])=O)=C2[H])O1)O[H])O[H])OC([H])([H])[C@]1([H])[C@]([H])([C@]([H])([C@]([H])(N2C([H])=NC3=C(N([H])[H])N=C([H])N=C23)O1)O[H])O[H]

> <CSID>
5682

$$$$
