9833444
  Marvin  01040800003D          

140143  0  0  1  0            999 V2000
   -8.1445   -2.3587   -0.0366 S   0  0  0  0  0  0  0  0  0  0  0  0
    4.1958    0.7752   -5.7635 S   0  0  0  0  0  0  0  0  0  0  0  0
   12.4978   -6.7626   -1.7237 S   0  0  1  0  0  0  0  0  0  0  0  0
   -5.2014    1.6900   -1.2799 O   0  0  0  0  0  0  0  0  0  0  0  0
   -5.3126   -0.8723    3.0126 O   0  0  0  0  0  0  0  0  0  0  0  0
   -0.1676    2.0784   -1.5299 O   0  0  0  0  0  0  0  0  0  0  0  0
    6.4339   -0.0496   -0.5766 O   0  0  0  0  0  0  0  0  0  0  0  0
    2.2684   -1.9884   -1.5840 O   0  0  0  0  0  0  0  0  0  0  0  0
   -1.7557    1.9874    5.0668 O   0  0  0  0  0  0  0  0  0  0  0  0
    6.4358   -3.8082   -4.0804 O   0  0  0  0  0  0  0  0  0  0  0  0
   -1.8811   -2.0621    6.2208 O   0  0  0  0  0  0  0  0  0  0  0  0
   -2.9902   -0.5089    7.0572 O   0  0  0  0  0  0  0  0  0  0  0  0
   -1.9188    3.9669    7.8978 O   0  0  0  0  0  0  0  0  0  0  0  0
   11.6360   -6.6302   -0.3782 O   0  0  0  0  0  0  0  0  0  0  0  0
    2.4957   -5.5973    0.0668 O   0  0  0  0  0  0  0  0  0  0  0  0
    2.5550   -6.0766   -1.9407 O   0  0  0  0  0  0  0  0  0  0  0  0
   14.0465   -6.7448   -1.3690 O   0  0  0  0  0  0  0  0  0  0  0  0
   12.1450   -8.1291   -2.4543 O   0  0  0  0  0  0  0  0  0  0  0  0
   12.2264   -5.5737   -2.7465 O   0  0  0  0  0  0  0  0  0  0  0  0
   -4.0685    0.8664    0.3504 N   0  0  0  0  0  0  0  0  0  0  0  0
   -1.9796    0.8410   -1.5909 N   0  0  0  0  0  0  0  0  0  0  0  0
   -4.7150    5.5898   -3.1115 N   0  0  0  0  0  0  0  0  0  0  0  0
   -4.0998    0.9287    3.2083 N   0  0  0  0  0  0  0  0  0  0  0  0
    4.7842   -1.1569   -1.5084 N   0  0  0  0  0  0  0  0  0  0  0  0
    1.4731    0.0354   -1.5295 N   0  0  0  0  0  0  0  0  0  0  0  0
    6.7776   -2.8514   -2.2735 N   0  0  0  0  0  0  0  0  0  0  0  0
   -3.6637    3.0334    5.2755 N   0  0  0  0  0  0  0  0  0  0  0  0
    5.3490   -6.0243   -2.8447 N   0  0  0  0  0  0  0  0  0  0  0  0
   -3.9631    3.4103    8.1275 N   0  0  0  0  0  0  0  0  0  0  0  0
   -2.9329    1.8642   -1.6047 C   0  0  1  0  0  0  0  0  0  0  0  0
   -3.1299    2.2951   -3.1046 C   0  0  0  0  0  0  0  0  0  0  0  0
   -5.1884    0.4354    1.1010 C   0  0  1  0  0  0  0  0  0  0  0  0
   -4.0100    3.4740   -3.2708 C   0  0  0  0  0  0  0  0  0  0  0  0
   -4.0966    1.4465   -0.8257 C   0  0  0  0  0  0  0  0  0  0  0  0
   -5.3958    3.4982   -3.4446 C   0  0  0  0  0  0  0  0  0  0  0  0
   -5.9535   -0.7132    0.3480 C   0  0  0  0  0  0  0  0  0  0  0  0
   -5.8048    4.8186   -3.2388 C   0  0  0  0  0  0  0  0  0  0  0  0
   -4.8496    0.1356    2.4908 C   0  0  0  0  0  0  0  0  0  0  0  0
   -3.6243    4.8081   -3.1291 C   0  0  0  0  0  0  0  0  0  0  0  0
   -3.6510    0.7436    4.5298 C   0  0  1  0  0  0  0  0  0  0  0  0
    3.8004   -0.1849   -1.6655 C   0  0  1  0  0  0  0  0  0  0  0  0
    6.7303   -2.3532   -0.9624 C   0  0  1  0  0  0  0  0  0  0  0  0
   -7.4291   -0.9064    0.7702 C   0  0  0  0  0  0  0  0  0  0  0  0
   -0.6893    0.9672   -1.5464 C   0  0  0  0  0  0  0  0  0  0  0  0
    4.0319    0.5955   -2.9954 C   0  0  0  0  0  0  0  0  0  0  0  0
   -6.3467    2.4807   -3.6730 C   0  0  0  0  0  0  0  0  0  0  0  0
    8.1640   -2.2684   -0.3521 C   0  0  0  0  0  0  0  0  0  0  0  0
    0.1093   -0.2389   -1.5370 C   0  0  0  0  0  0  0  0  0  0  0  0
    5.9757   -1.1050   -0.9976 C   0  0  0  0  0  0  0  0  0  0  0  0
   -2.8057   -0.5687    4.7087 C   0  0  0  0  0  0  0  0  0  0  0  0
   -7.1691    5.1455   -3.1504 C   0  0  0  0  0  0  0  0  0  0  0  0
    2.4697   -0.7792   -1.5809 C   0  0  0  0  0  0  0  0  0  0  0  0
   -2.9778    1.9645    4.9701 C   0  0  0  0  0  0  0  0  0  0  0  0
   -3.2279    4.1768    5.9689 C   0  0  1  0  0  0  0  0  0  0  0  0
   -7.7154    2.7917   -3.5549 C   0  0  0  0  0  0  0  0  0  0  0  0
    3.9459   -0.2471   -4.2926 C   0  0  0  0  0  0  0  0  0  0  0  0
   -8.1230    4.1137   -3.2781 C   0  0  0  0  0  0  0  0  0  0  0  0
    9.0030   -3.4962   -0.2383 C   0  0  0  0  0  0  0  0  0  0  0  0
   -4.1984    5.3836    5.7836 C   0  0  0  0  0  0  0  0  0  0  0  0
    6.0712   -3.7452   -2.9126 C   0  0  0  0  0  0  0  0  0  0  0  0
    4.9562   -4.6331   -2.5508 C   0  0  2  0  0  0  0  0  0  0  0  0
   -2.5504   -1.0487    6.0532 C   0  0  0  0  0  0  0  0  0  0  0  0
   -4.5008    5.7652    4.3742 C   0  0  0  0  0  0  0  0  0  0  0  0
   -3.0187    3.8511    7.3769 C   0  0  0  0  0  0  0  0  0  0  0  0
   10.3048   -3.3749    0.3060 C   0  0  0  0  0  0  0  0  0  0  0  0
    8.5944   -4.7825   -0.6662 C   0  0  0  0  0  0  0  0  0  0  0  0
    4.2887   -4.6872   -1.1405 C   0  0  0  0  0  0  0  0  0  0  0  0
   -9.6513   -2.4568    0.9478 C   0  0  0  0  0  0  0  0  0  0  0  0
   11.1948   -4.4636    0.3237 C   0  0  0  0  0  0  0  0  0  0  0  0
    9.4804   -5.8708   -0.6797 C   0  0  0  0  0  0  0  0  0  0  0  0
   10.8024   -5.6987   -0.2290 C   0  0  0  0  0  0  0  0  0  0  0  0
   -5.8282    5.7369    3.8814 C   0  0  0  0  0  0  0  0  0  0  0  0
   -3.4745    6.1729    3.4877 C   0  0  0  0  0  0  0  0  0  0  0  0
    3.8760   -0.4920   -7.0070 C   0  0  0  0  0  0  0  0  0  0  0  0
    3.0752   -5.4819   -1.0070 C   0  0  0  0  0  0  0  0  0  0  0  0
   -6.1194    6.0810    2.5489 C   0  0  0  0  0  0  0  0  0  0  0  0
   -3.7576    6.5098    2.1506 C   0  0  0  0  0  0  0  0  0  0  0  0
   -5.0816    6.4604    1.6796 C   0  0  0  0  0  0  0  0  0  0  0  0
   -2.5587    2.7333   -1.0515 H   0  0  0  0  0  0  0  0  0  0  0  0
   -3.5158    1.4549   -3.6875 H   0  0  0  0  0  0  0  0  0  0  0  0
   -2.1639    2.5453   -3.5548 H   0  0  0  0  0  0  0  0  0  0  0  0
   -5.8616    1.2974    1.1795 H   0  0  0  0  0  0  0  0  0  0  0  0
   -5.3958   -1.6451    0.4774 H   0  0  0  0  0  0  0  0  0  0  0  0
   -5.9847   -0.5549   -0.7318 H   0  0  0  0  0  0  0  0  0  0  0  0
   -3.2241    0.7207    0.7270 H   0  0  0  0  0  0  0  0  0  0  0  0
   -2.3081   -0.0344   -1.6436 H   0  0  0  0  0  0  0  0  0  0  0  0
   -2.6654    5.1428   -3.0159 H   0  0  0  0  0  0  0  0  0  0  0  0
   -4.5458    0.6297    5.1543 H   0  0  0  0  0  0  0  0  0  0  0  0
    3.8833    0.5259   -0.8345 H   0  0  0  0  0  0  0  0  0  0  0  0
   -4.7142    6.5523   -2.9945 H   0  0  0  0  0  0  0  0  0  0  0  0
    6.1954   -3.0134   -0.2828 H   0  0  0  0  0  0  0  0  0  0  0  0
   -3.8307    1.7195    2.7861 H   0  0  0  0  0  0  0  0  0  0  0  0
   -8.0156   -0.0252    0.4986 H   0  0  0  0  0  0  0  0  0  0  0  0
   -7.5028   -1.0348    1.8494 H   0  0  0  0  0  0  0  0  0  0  0  0
    5.0151    1.0730   -2.9550 H   0  0  0  0  0  0  0  0  0  0  0  0
    3.3036    1.4093   -3.0618 H   0  0  0  0  0  0  0  0  0  0  0  0
   -6.0546    1.5205   -3.8694 H   0  0  0  0  0  0  0  0  0  0  0  0
    8.7334   -1.5467   -0.9478 H   0  0  0  0  0  0  0  0  0  0  0  0
    8.0741   -1.8479    0.6545 H   0  0  0  0  0  0  0  0  0  0  0  0
   -0.1427   -0.8289   -0.6511 H   0  0  0  0  0  0  0  0  0  0  0  0
   -0.1301   -0.8289   -2.4277 H   0  0  0  0  0  0  0  0  0  0  0  0
    4.5515   -1.9892   -1.8615 H   0  0  0  0  0  0  0  0  0  0  0  0
   -1.8514   -0.4486    4.1894 H   0  0  0  0  0  0  0  0  0  0  0  0
   -3.2929   -1.4128    4.2209 H   0  0  0  0  0  0  0  0  0  0  0  0
   -7.4601    6.1074   -2.9686 H   0  0  0  0  0  0  0  0  0  0  0  0
   -2.2714    4.4969    5.5388 H   0  0  0  0  0  0  0  0  0  0  0  0
    1.7081    0.9391   -1.4896 H   0  0  0  0  0  0  0  0  0  0  0  0
    7.4386   -2.4370   -2.7939 H   0  0  0  0  0  0  0  0  0  0  0  0
   -8.4128    2.0501   -3.6531 H   0  0  0  0  0  0  0  0  0  0  0  0
   -4.5703    3.0190    5.0441 H   0  0  0  0  0  0  0  0  0  0  0  0
    4.7063   -1.0310   -4.2829 H   0  0  0  0  0  0  0  0  0  0  0  0
    2.9635   -0.7190   -4.3610 H   0  0  0  0  0  0  0  0  0  0  0  0
   -9.1168    4.3232   -3.1657 H   0  0  0  0  0  0  0  0  0  0  0  0
   -3.7731    6.2645    6.2745 H   0  0  0  0  0  0  0  0  0  0  0  0
   -5.1252    5.1672    6.3241 H   0  0  0  0  0  0  0  0  0  0  0  0
    4.1526   -4.3646   -3.2444 H   0  0  0  0  0  0  0  0  0  0  0  0
   10.6309   -2.4799    0.6810 H   0  0  0  0  0  0  0  0  0  0  0  0
    7.6508   -4.9641   -0.9994 H   0  0  0  0  0  0  0  0  0  0  0  0
    5.0114   -5.0660   -0.4131 H   0  0  0  0  0  0  0  0  0  0  0  0
    4.0131   -3.6838   -0.8250 H   0  0  0  0  0  0  0  0  0  0  0  0
  -10.2436   -3.3007    0.5977 H   0  0  0  0  0  0  0  0  0  0  0  0
  -10.2295   -1.5386    0.8411 H   0  0  0  0  0  0  0  0  0  0  0  0
   -9.3987   -2.6145    1.9973 H   0  0  0  0  0  0  0  0  0  0  0  0
   12.1349   -4.3453    0.7091 H   0  0  0  0  0  0  0  0  0  0  0  0
    9.1655   -6.7744   -1.0432 H   0  0  0  0  0  0  0  0  0  0  0  0
   -6.6052    5.4654    4.4888 H   0  0  0  0  0  0  0  0  0  0  0  0
   -2.5031    6.2292    3.8036 H   0  0  0  0  0  0  0  0  0  0  0  0
    5.6223   -6.0927   -3.8270 H   0  0  0  0  0  0  0  0  0  0  0  0
    6.1685   -6.2429   -2.2736 H   0  0  0  0  0  0  0  0  0  0  0  0
   -4.8272    3.3093    7.7837 H   0  0  0  0  0  0  0  0  0  0  0  0
   -3.7929    3.1848    9.0193 H   0  0  0  0  0  0  0  0  0  0  0  0
    3.9912   -0.0511   -7.9966 H   0  0  0  0  0  0  0  0  0  0  0  0
    4.5839   -1.3144   -6.8985 H   0  0  0  0  0  0  0  0  0  0  0  0
    2.8572   -0.8680   -6.9050 H   0  0  0  0  0  0  0  0  0  0  0  0
   -7.0845    6.0552    2.2122 H   0  0  0  0  0  0  0  0  0  0  0  0
   -3.0034    6.7915    1.5200 H   0  0  0  0  0  0  0  0  0  0  0  0
   -1.5560   -2.4993    5.5276 H   0  0  0  0  0  0  0  0  0  0  0  0
   -5.2904    6.7024    0.7087 H   0  0  0  0  0  0  0  0  0  0  0  0
    2.7960   -5.2030    0.7933 H   0  0  0  0  0  0  0  0  0  0  0  0
   14.6408   -6.7560   -2.0177 H   0  0  0  0  0  0  0  0  0  0  0  0
  1 43  1  0  0  0  0
  1 68  1  0  0  0  0
  2 56  1  0  0  0  0
  2 74  1  0  0  0  0
  3 14  1  0  0  0  0
  3 17  1  0  0  0  0
  3 18  2  0  0  0  0
  3 19  2  0  0  0  0
  4 34  2  0  0  0  0
  5 38  2  0  0  0  0
  6 44  2  0  0  0  0
  7 49  2  0  0  0  0
  8 52  2  0  0  0  0
  9 53  2  0  0  0  0
 10 60  2  0  0  0  0
 11 62  1  0  0  0  0
 11137  1  0  0  0  0
 12 62  2  0  0  0  0
 13 64  2  0  0  0  0
 14 71  1  0  0  0  0
 15 75  1  0  0  0  0
 15139  1  0  0  0  0
 16 75  2  0  0  0  0
 17140  1  0  0  0  0
 32 20  1  0  0  0  0
 20 34  1  0  0  0  0
 20 85  1  0  0  0  0
 30 21  1  0  0  0  0
 21 44  1  0  0  0  0
 21 86  1  0  0  0  0
 22 37  1  0  0  0  0
 22 39  1  0  0  0  0
 22 90  1  0  0  0  0
 23 38  1  0  0  0  0
 40 23  1  0  0  0  0
 23 92  1  0  0  0  0
 41 24  1  0  0  0  0
 24 49  1  0  0  0  0
 24102  1  0  0  0  0
 25 48  1  0  0  0  0
 25 52  1  0  0  0  0
 25107  1  0  0  0  0
 42 26  1  0  0  0  0
 26 60  1  0  0  0  0
 26108  1  0  0  0  0
 27 53  1  0  0  0  0
 54 27  1  0  0  0  0
 27110  1  0  0  0  0
 61 28  1  0  0  0  0
 28128  1  0  0  0  0
 28129  1  0  0  0  0
 29 64  1  0  0  0  0
 29130  1  0  0  0  0
 29131  1  0  0  0  0
 30 31  1  0  0  0  0
 30 34  1  0  0  0  0
 30 79  1  0  0  0  0
 31 33  1  0  0  0  0
 31 80  1  0  0  0  0
 31 81  1  0  0  0  0
 32 36  1  0  0  0  0
 32 38  1  0  0  0  0
 32 82  1  0  0  0  0
 33 35  1  0  0  0  0
 33 39  2  0  0  0  0
 35 37  1  0  0  0  0
 35 46  2  0  0  0  0
 36 43  1  0  0  0  0
 36 83  1  0  0  0  0
 36 84  1  0  0  0  0
 37 51  2  0  0  0  0
 39 87  1  0  0  0  0
 40 50  1  0  0  0  0
 40 53  1  0  0  0  0
 40 88  1  0  0  0  0
 41 45  1  0  0  0  0
 41 52  1  0  0  0  0
 41 89  1  0  0  0  0
 42 47  1  0  0  0  0
 42 49  1  0  0  0  0
 42 91  1  0  0  0  0
 43 93  1  0  0  0  0
 43 94  1  0  0  0  0
 44 48  1  0  0  0  0
 45 56  1  0  0  0  0
 45 95  1  0  0  0  0
 45 96  1  0  0  0  0
 46 55  1  0  0  0  0
 46 97  1  0  0  0  0
 47 58  1  0  0  0  0
 47 98  1  0  0  0  0
 47 99  1  0  0  0  0
 48100  1  0  0  0  0
 48101  1  0  0  0  0
 50 62  1  0  0  0  0
 50103  1  0  0  0  0
 50104  1  0  0  0  0
 51 57  1  0  0  0  0
 51105  1  0  0  0  0
 54 59  1  0  0  0  0
 54 64  1  0  0  0  0
 54106  1  0  0  0  0
 55 57  2  0  0  0  0
 55109  1  0  0  0  0
 56111  1  0  0  0  0
 56112  1  0  0  0  0
 57113  1  0  0  0  0
 58 65  2  0  0  0  0
 58 66  1  0  0  0  0
 59 63  1  0  0  0  0
 59114  1  0  0  0  0
 59115  1  0  0  0  0
 60 61  1  0  0  0  0
 61 67  1  0  0  0  0
 61116  1  0  0  0  0
 63 72  2  0  0  0  0
 63 73  1  0  0  0  0
 65 69  1  0  0  0  0
 65117  1  0  0  0  0
 66 70  2  0  0  0  0
 66118  1  0  0  0  0
 67 75  1  0  0  0  0
 67119  1  0  0  0  0
 67120  1  0  0  0  0
 68121  1  0  0  0  0
 68122  1  0  0  0  0
 68123  1  0  0  0  0
 69 71  2  0  0  0  0
 69124  1  0  0  0  0
 70 71  1  0  0  0  0
 70125  1  0  0  0  0
 72 76  1  0  0  0  0
 72126  1  0  0  0  0
 73 77  2  0  0  0  0
 73127  1  0  0  0  0
 74132  1  0  0  0  0
 74133  1  0  0  0  0
 74134  1  0  0  0  0
 76 78  2  0  0  0  0
 76135  1  0  0  0  0
 77 78  1  0  0  0  0
 77136  1  0  0  0  0
 78138  1  0  0  0  0
M  END

> <PUBCHEM_BONDANNOTATIONS>
32  20  6
30  21  5
22  37  8
22  39  8
40  23  5
41  24  6
42  26  5
54  27  5
61  28  6
33  35  8
33  39  8
35  37  8
35  46  8
37  51  8
46  55  8
51  57  8
55  57  8
58  65  8
58  66  8
63  72  8
63  73  8
65  69  8
66  70  8
69  71  8
70  71  8
72  76  8
73  77  8
76  78  8
77  78  8

> <StdInChI>
InChI=1S/C49H62N10O16S3/c1-76-18-16-34(55-47(69)37(58-44(66)32(50)23-41(61)62)21-28-12-14-30(15-13-28)75-78(72,73)74)45(67)53-26-40(60)54-38(22-29-25-52-33-11-7-6-10-31(29)33)48(70)56-35(17-19-77-2)46(68)59-39(24-42(63)64)49(71)57-36(43(51)65)20-27-8-4-3-5-9-27/h3-15,25,32,34-39,52H,16-24,26,50H2,1-2H3,(H2,51,65)(H,53,67)(H,54,60)(H,55,69)(H,56,70)(H,57,71)(H,58,66)(H,59,68)(H,61,62)(H,63,64)(H,72,73,74)/t32-,34-,35-,36-,37-,38-,39-/m0/s1

> <StdInChIKey>
IZTQOLKUZKXIRV-YRVFCXMDSA-N

> <AuxInfo>
1/1/N:74,68,78,76,77,55,57,72,73,46,51,65,66,69,70,45,36,56,43,59,47,31,67,50,39,48,63,58,33,71,35,61,37,41,32,54,42,30,40,44,75,62,64,60,52,38,49,34,53,28,29,22,25,21,24,20,27,26,23,6,15,16,11,12,13,10,8,5,7,4,9,17,18,19,14,2,1,3/E:(4,5)(8,9)(12,13)(14,15)(61,62)(63,64)(72,73,74)/it:im/CRV:78.6/rA:140cSSSOOOOOOOOOOOOOOOONNNNNNNNNNCCCCCCCCCCCCCCCCCCCCCCCCCCCCCCCCCCCCCCCCCCCCCCCCCHHHHHHHHHHHHHHHHHHHHHHHHHHHHHHHHHHHHHHHHHHHHHHHHHHHHHHHHHHHHHH/rB:;;;;;;;;;;;;s3;;;s3;d3;d3;;;;;;;;;;;s21;s30;s20;s31;d4s20s30;s33;s32;s22s35;d5s23s32;s22d33;s23;s24;s26;s1s36;d6s21;s41;d35;s42;s25s44;d7s24s42;s40;d37;d8s25s41;d9s27s40;s27;s46;s2s45;s51d55;s47;s54;d10s26;s28s60;s11d12s50;s59;d13s29s54;d58;s58;s61;s1;s65;d66;s14d69s70;d63;s63;s2;s15d16s67;s72;d73;d76s77;s30;s31;s31;s32;s36;s36;s20;s21;s39;s40;s41;s22;s42;s23;s43;s43;s45;s45;s46;s47;s47;s48;s48;s24;s50;s50;s51;s54;s25;s26;s55;s27;s56;s56;s57;s59;s59;s61;s65;s66;s67;s67;s68;s68;s68;s69;s70;s72;s73;s28;s28;s29;s29;s74;s74;s74;s76;s77;s11;s78;s15;s17;/rC:-8.1445,-2.3587,-.0366;4.1958,.7752,-5.7635;12.4978,-6.7626,-1.7237;-5.2014,1.69,-1.2799;-5.3126,-.8723,3.0126;-.1676,2.0784,-1.5299;6.4339,-.0496,-.5766;2.2684,-1.9884,-1.584;-1.7557,1.9874,5.0668;6.4358,-3.8082,-4.0804;-1.8811,-2.0621,6.2208;-2.9902,-.5089,7.0572;-1.9188,3.9669,7.8978;11.636,-6.6302,-.3782;2.4957,-5.5973,.0668;2.555,-6.0766,-1.9407;14.0465,-6.7448,-1.369;12.145,-8.1291,-2.4543;12.2264,-5.5737,-2.7465;-4.0685,.8664,.3504;-1.9796,.841,-1.5909;-4.715,5.5898,-3.1115;-4.0998,.9287,3.2083;4.7842,-1.1569,-1.5084;1.4731,.0354,-1.5295;6.7776,-2.8514,-2.2735;-3.6637,3.0334,5.2755;5.349,-6.0243,-2.8447;-3.9631,3.4103,8.1275;-2.9329,1.8642,-1.6047;-3.1299,2.2951,-3.1046;-5.1884,.4354,1.101;-4.01,3.474,-3.2708;-4.0966,1.4465,-.8257;-5.3958,3.4982,-3.4446;-5.9535,-.7132,.348;-5.8048,4.8186,-3.2388;-4.8496,.1356,2.4908;-3.6243,4.8081,-3.1291;-3.651,.7436,4.5298;3.8004,-.1849,-1.6655;6.7303,-2.3532,-.9624;-7.4291,-.9064,.7702;-.6893,.9672,-1.5464;4.0319,.5955,-2.9954;-6.3467,2.4807,-3.673;8.164,-2.2684,-.3521;.1093,-.2389,-1.537;5.9757,-1.105,-.9976;-2.8057,-.5687,4.7087;-7.1691,5.1455,-3.1504;2.4697,-.7792,-1.5809;-2.9778,1.9645,4.9701;-3.2279,4.1768,5.9689;-7.7154,2.7917,-3.5549;3.9459,-.2471,-4.2926;-8.123,4.1137,-3.2781;9.003,-3.4962,-.2383;-4.1984,5.3836,5.7836;6.0712,-3.7452,-2.9126;4.9562,-4.6331,-2.5508;-2.5504,-1.0487,6.0532;-4.5008,5.7652,4.3742;-3.0187,3.8511,7.3769;10.3048,-3.3749,.306;8.5944,-4.7825,-.6662;4.2887,-4.6872,-1.1405;-9.6513,-2.4568,.9478;11.1948,-4.4636,.3237;9.4804,-5.8708,-.6797;10.8024,-5.6987,-.229;-5.8282,5.7369,3.8814;-3.4745,6.1729,3.4877;3.876,-.492,-7.007;3.0752,-5.4819,-1.007;-6.1194,6.081,2.5489;-3.7576,6.5098,2.1506;-5.0816,6.4604,1.6796;-2.5587,2.7333,-1.0515;-3.5158,1.4549,-3.6875;-2.1639,2.5453,-3.5548;-5.8616,1.2974,1.1795;-5.3958,-1.6451,.4774;-5.9847,-.5549,-.7318;-3.2241,.7207,.727;-2.3081,-.0344,-1.6436;-2.6654,5.1428,-3.0159;-4.5458,.6297,5.1543;3.8833,.5259,-.8345;-4.7142,6.5523,-2.9945;6.1954,-3.0134,-.2828;-3.8307,1.7195,2.7861;-8.0156,-.0252,.4986;-7.5028,-1.0348,1.8494;5.0151,1.073,-2.955;3.3036,1.4093,-3.0618;-6.0546,1.5205,-3.8694;8.7334,-1.5467,-.9478;8.0741,-1.8479,.6545;-.1427,-.8289,-.6511;-.1301,-.8289,-2.4277;4.5515,-1.9892,-1.8615;-1.8514,-.4486,4.1894;-3.2929,-1.4128,4.2209;-7.4601,6.1074,-2.9686;-2.2714,4.4969,5.5388;1.7081,.9391,-1.4896;7.4386,-2.437,-2.7939;-8.4128,2.0501,-3.6531;-4.5703,3.019,5.0441;4.7063,-1.031,-4.2829;2.9635,-.719,-4.361;-9.1168,4.3232,-3.1657;-3.7731,6.2645,6.2745;-5.1252,5.1672,6.3241;4.1526,-4.3646,-3.2444;10.6309,-2.4799,.681;7.6508,-4.9641,-.9994;5.0114,-5.066,-.4131;4.0131,-3.6838,-.825;-10.2436,-3.3007,.5977;-10.2295,-1.5386,.8411;-9.3987,-2.6145,1.9973;12.1349,-4.3453,.7091;9.1655,-6.7744,-1.0432;-6.6052,5.4654,4.4888;-2.5031,6.2292,3.8036;5.6223,-6.0927,-3.827;6.1685,-6.2429,-2.2736;-4.8272,3.3093,7.7837;-3.7929,3.1848,9.0193;3.9912,-.0511,-7.9966;4.5839,-1.3144,-6.8985;2.8572,-.868,-6.905;-7.0845,6.0552,2.2122;-3.0034,6.7915,1.52;-1.556,-2.4993,5.5276;-5.2904,6.7024,.7087;2.796,-5.203,.7933;14.6408,-6.756,-2.0177;

> <Formula>
C49 H62 N10 O16 S3

> <Mw>
1143.269

> <SMILES>
S(C([H])([H])[H])C([H])([H])C([H])([H])[C@@]([H])(C(N([H])[C@]([H])(C(N([H])[C@]([H])(C(N([H])[H])=O)C([H])([H])C1C([H])=C([H])C([H])=C([H])C=1[H])=O)C([H])([H])C(=O)O[H])=O)N([H])C([C@]([H])(C([H])([H])C1=C([H])N([H])C2=C([H])C([H])=C([H])C([H])=C12)N([H])C(C([H])([H])N([H])C([C@]([H])(C([H])([H])C([H])([H])SC([H])([H])[H])N([H])C([C@]([H])(C([H])([H])C1C([H])=C([H])C(=C([H])C=1[H])OS(=O)(=O)O[H])N([H])C([C@]([H])(C([H])([H])C(=O)O[H])N([H])[H])=O)=O)=O)=O)=O

> <CSID>
8009168

$$$$
