681
  Marvin  12300703363D          

 22 22  0  0  0  0            999 V2000
    3.1666    1.1516   -0.4169 O   0  0  0  0  0  0  0  0  0  0  0  0
    1.8181    3.4899   -0.4138 O   0  0  0  0  0  0  0  0  0  0  0  0
   -1.9699   -3.0815    1.0527 N   0  0  0  0  0  0  0  0  0  0  0  0
   -0.9603   -1.3516   -0.4175 C   0  0  0  0  0  0  0  0  0  0  0  0
   -0.2174   -0.0660   -0.4428 C   0  0  0  0  0  0  0  0  0  0  0  0
   -1.2280   -1.8188    1.0314 C   0  0  0  0  0  0  0  0  0  0  0  0
    1.1964   -0.0465   -0.4371 C   0  0  0  0  0  0  0  0  0  0  0  0
   -0.9073    1.1679   -0.4372 C   0  0  0  0  0  0  0  0  0  0  0  0
    1.9086    1.1700   -0.4269 C   0  0  0  0  0  0  0  0  0  0  0  0
   -0.2054    2.3865   -0.4272 C   0  0  0  0  0  0  0  0  0  0  0  0
    1.2036    2.3926   -0.4232 C   0  0  0  0  0  0  0  0  0  0  0  0
   -0.4014   -2.1270   -0.9497 H   0  0  0  0  0  0  0  0  0  0  0  0
   -1.9107   -1.2568   -0.9506 H   0  0  0  0  0  0  0  0  0  0  0  0
   -0.2871   -1.9718    1.5652 H   0  0  0  0  0  0  0  0  0  0  0  0
   -1.8154   -1.0742    1.5738 H   0  0  0  0  0  0  0  0  0  0  0  0
    1.7175   -0.9280   -0.4338 H   0  0  0  0  0  0  0  0  0  0  0  0
   -1.9302    1.1921   -0.4339 H   0  0  0  0  0  0  0  0  0  0  0  0
   -0.7290    3.2654   -0.4197 H   0  0  0  0  0  0  0  0  0  0  0  0
   -2.0594   -3.3566    2.0330 H   0  0  0  0  0  0  0  0  0  0  0  0
   -1.3767   -3.7802    0.6004 H   0  0  0  0  0  0  0  0  0  0  0  0
    3.6075    0.3890   -0.4148 H   0  0  0  0  0  0  0  0  0  0  0  0
    1.3800    4.2540   -0.4115 H   0  0  0  0  0  0  0  0  0  0  0  0
  1  9  1  0  0  0  0
  1 21  1  0  0  0  0
  2 11  1  0  0  0  0
  2 22  1  0  0  0  0
  3  6  1  0  0  0  0
  3 19  1  0  0  0  0
  3 20  1  0  0  0  0
  4  5  1  0  0  0  0
  4  6  1  0  0  0  0
  4 12  1  0  0  0  0
  4 13  1  0  0  0  0
  5  7  2  0  0  0  0
  5  8  1  0  0  0  0
  6 14  1  0  0  0  0
  6 15  1  0  0  0  0
  7  9  1  0  0  0  0
  7 16  1  0  0  0  0
  8 10  2  0  0  0  0
  8 17  1  0  0  0  0
  9 11  2  0  0  0  0
 10 11  1  0  0  0  0
 10 18  1  0  0  0  0
M  END

> <PUBCHEM_BONDANNOTATIONS>
10  11  8
5  7  8
5  8  8
7  9  8
8  10  8
9  11  8

> <StdInChI>
InChI=1S/C8H11NO2/c9-4-3-6-1-2-7(10)8(11)5-6/h1-2,5,10-11H,3-4,9H2

> <StdInChIKey>
VYFYYTLLBUKUHU-UHFFFAOYSA-N

> <AuxInfo>
1/0/N:8,10,4,6,7,5,11,9,3,2,1/rA:22nOONCCCCCCCCHHHHHHHHHHH/rB:;;;s4;s3s4;d5;s5;s1s7;d8;s2d9s10;s4;s4;s6;s6;s7;s8;s10;s3;s3;s1;s2;/rC:3.1666,1.1516,-.4169;1.8181,3.4899,-.4138;-1.9699,-3.0815,1.0527;-.9603,-1.3516,-.4175;-.2174,-.066,-.4428;-1.228,-1.8188,1.0314;1.1964,-.0465,-.4371;-.9073,1.1679,-.4372;1.9086,1.17,-.4269;-.2054,2.3865,-.4272;1.2036,2.3926,-.4232;-.4014,-2.127,-.9497;-1.9107,-1.2568,-.9506;-.2871,-1.9718,1.5652;-1.8154,-1.0742,1.5738;1.7175,-.928,-.4338;-1.9302,1.1921,-.4339;-.729,3.2654,-.4197;-2.0594,-3.3566,2.033;-1.3767,-3.7802,.6004;3.6075,.389,-.4148;1.38,4.254,-.4115;

> <Formula>
C8 H11 N O2

> <Mw>
153.1784

> <SMILES>
O([H])C1=C(C([H])=C([H])C(=C1[H])C([H])([H])C([H])([H])N([H])[H])O[H]

> <CSID>
661

$$$$
