774
  Marvin  12300703363D          

 17 17  0  0  0  0            999 V2000
   -1.5060    0.7523    0.5092 N   0  0  0  0  0  0  0  0  0  0  0  0
    1.2816   -2.5187   -0.7555 N   0  0  0  0  0  0  0  0  0  0  0  0
   -0.8622    2.8529    0.4963 N   0  0  0  0  0  0  0  0  0  0  0  0
    0.6876   -0.4614    0.4898 C   0  0  0  0  0  0  0  0  0  0  0  0
   -0.1658    0.7399    0.5046 C   0  0  0  0  0  0  0  0  0  0  0  0
    0.4302   -1.3271   -0.7630 C   0  0  0  0  0  0  0  0  0  0  0  0
    0.2301    2.0744    0.5004 C   0  0  0  0  0  0  0  0  0  0  0  0
   -1.9196    2.0265    0.4995 C   0  0  0  0  0  0  0  0  0  0  0  0
    0.4855   -1.0424    1.3929 H   0  0  0  0  0  0  0  0  0  0  0  0
    1.7423   -0.1729    0.5144 H   0  0  0  0  0  0  0  0  0  0  0  0
    0.6404   -0.7573   -1.6716 H   0  0  0  0  0  0  0  0  0  0  0  0
   -0.6098   -1.6601   -0.7972 H   0  0  0  0  0  0  0  0  0  0  0  0
   -2.0803   -0.0304    0.5110 H   0  0  0  0  0  0  0  0  0  0  0  0
    1.1939    2.4133    0.4963 H   0  0  0  0  0  0  0  0  0  0  0  0
   -2.8963    2.3233    0.4933 H   0  0  0  0  0  0  0  0  0  0  0  0
    1.0993   -3.0211   -1.6265 H   0  0  0  0  0  0  0  0  0  0  0  0
    2.2490   -2.1913   -0.7941 H   0  0  0  0  0  0  0  0  0  0  0  0
  1  5  1  0  0  0  0
  1  8  1  0  0  0  0
  1 13  1  0  0  0  0
  2  6  1  0  0  0  0
  2 16  1  0  0  0  0
  2 17  1  0  0  0  0
  3  7  1  0  0  0  0
  3  8  2  0  0  0  0
  4  5  1  0  0  0  0
  4  6  1  0  0  0  0
  4  9  1  0  0  0  0
  4 10  1  0  0  0  0
  5  7  2  0  0  0  0
  6 11  1  0  0  0  0
  6 12  1  0  0  0  0
  7 14  1  0  0  0  0
  8 15  1  0  0  0  0
M  END

> <PUBCHEM_BONDANNOTATIONS>
1  5  8
1  8  8
3  7  8
3  8  8
5  7  8

> <StdInChI>
InChI=1S/C5H9N3/c6-2-1-5-3-7-4-8-5/h3-4H,1-2,6H2,(H,7,8)

> <StdInChIKey>
NTYJJOPFIAHURM-UHFFFAOYSA-N

> <AuxInfo>
1/1/N:4,6,7,8,5,2,3,1/rA:17nNNNCCCCCHHHHHHHHH/rB:;;;s1s4;s2s4;s3d5;s1d3;s4;s4;s6;s6;s1;s7;s8;s2;s2;/rC:-1.506,.7523,.5092;1.2816,-2.5187,-.7555;-.8622,2.8529,.4963;.6876,-.4614,.4898;-.1658,.7399,.5046;.4302,-1.3271,-.763;.2301,2.0744,.5004;-1.9196,2.0265,.4995;.4855,-1.0424,1.3929;1.7423,-.1729,.5144;.6404,-.7573,-1.6716;-.6098,-1.6601,-.7972;-2.0803,-.0304,.511;1.1939,2.4133,.4963;-2.8963,2.3233,.4933;1.0993,-3.0211,-1.6265;2.249,-2.1913,-.7941;

> <Formula>
C5 H9 N3

> <Mw>
111.1451

> <SMILES>
N1([H])C([H])=NC([H])=C1C([H])([H])C([H])([H])N([H])[H]

> <CSID>
753

$$$$
