5282105
  Marvin  12300716493D          

 73 73  0  0  0  0            999 V2000
   -1.3164   -3.1851   -2.5886 O   0  0  0  0  0  0  0  0  0  0  0  0
    4.6263    2.6329   -4.8305 O   0  0  0  0  0  0  0  0  0  0  0  0
    3.2536    4.9779   -4.7193 O   0  0  0  0  0  0  0  0  0  0  0  0
   -0.4083   -1.5250   -3.5476 N   0  0  0  0  0  0  0  0  0  0  0  0
   -3.6179   -0.4770    1.5767 C   0  0  0  0  0  0  0  0  0  0  0  0
   -3.5625   -1.9904    1.2334 C   0  0  0  0  0  0  0  0  0  0  0  0
   -2.8655   -0.1073    2.8806 C   0  0  0  0  0  0  0  0  0  0  0  0
   -4.1789   -2.3482   -0.1448 C   0  0  0  0  0  0  0  0  0  0  0  0
    0.4963   -2.6394   -0.2627 C   0  0  0  0  0  0  0  0  0  0  0  0
   -0.4032   -1.6837   -1.0899 C   0  0  0  0  0  0  0  0  0  0  0  0
    0.2709   -0.3179   -3.6712 C   0  0  0  0  0  0  0  0  0  0  0  0
    0.5226    0.1286   -5.1276 C   0  0  0  0  0  0  0  0  0  0  0  0
    0.9300   -2.0145    1.0896 C   0  0  0  0  0  0  0  0  0  0  0  0
   -0.7082   -2.1353   -2.4415 C   0  0  0  0  0  0  0  0  0  0  0  0
    1.2600    1.4179   -5.0948 C   0  0  0  0  0  0  0  0  0  0  0  0
   -3.9519   -3.8168   -0.5647 C   0  0  0  0  0  0  0  0  0  0  0  0
   -2.8955    1.3170    3.1918 C   0  0  0  0  0  0  0  0  0  0  0  0
    1.8054   -2.8008    1.9434 C   0  0  0  0  0  0  0  0  0  0  0  0
   -1.8826    2.2028    3.1646 C   0  0  0  0  0  0  0  0  0  0  0  0
    2.6730    1.4495   -5.0295 C   0  0  0  0  0  0  0  0  0  0  0  0
    0.5542    2.6407   -5.0301 C   0  0  0  0  0  0  0  0  0  0  0  0
   -0.5119    1.9227    2.7700 C   0  0  0  0  0  0  0  0  0  0  0  0
    2.2837   -2.4151    3.1414 C   0  0  0  0  0  0  0  0  0  0  0  0
    2.0135   -1.1679    3.8462 C   0  0  0  0  0  0  0  0  0  0  0  0
    3.3689    2.6682   -4.8987 C   0  0  0  0  0  0  0  0  0  0  0  0
    1.2408    3.8609   -4.9015 C   0  0  0  0  0  0  0  0  0  0  0  0
    2.6482    3.8804   -4.8364 C   0  0  0  0  0  0  0  0  0  0  0  0
    0.4935    2.9273    3.0792 C   0  0  0  0  0  0  0  0  0  0  0  0
    1.8755    1.7746    4.8643 C   0  0  0  0  0  0  0  0  0  0  0  0
    3.1243   -0.2409    3.9941 C   0  0  0  0  0  0  0  0  0  0  0  0
    1.5186    2.8526    3.9507 C   0  0  0  0  0  0  0  0  0  0  0  0
    3.0512    1.0299    4.4325 C   0  0  0  0  0  0  0  0  0  0  0  0
   -3.1780    0.0923    0.7520 H   0  0  0  0  0  0  0  0  0  0  0  0
   -4.6661   -0.1776    1.6635 H   0  0  0  0  0  0  0  0  0  0  0  0
   -4.0813   -2.5551    2.0120 H   0  0  0  0  0  0  0  0  0  0  0  0
   -2.5223   -2.3224    1.2560 H   0  0  0  0  0  0  0  0  0  0  0  0
   -3.3108   -0.6454    3.7214 H   0  0  0  0  0  0  0  0  0  0  0  0
   -1.8503   -0.4944    2.7945 H   0  0  0  0  0  0  0  0  0  0  0  0
   -3.7569   -1.7072   -0.9233 H   0  0  0  0  0  0  0  0  0  0  0  0
   -5.2535   -2.1526   -0.1178 H   0  0  0  0  0  0  0  0  0  0  0  0
    1.3906   -2.8825   -0.8438 H   0  0  0  0  0  0  0  0  0  0  0  0
   -0.0461   -3.5704   -0.0740 H   0  0  0  0  0  0  0  0  0  0  0  0
    0.0747   -0.7031   -1.0884 H   0  0  0  0  0  0  0  0  0  0  0  0
   -1.3450   -1.5176   -0.5756 H   0  0  0  0  0  0  0  0  0  0  0  0
    1.2393   -0.4148   -3.1682 H   0  0  0  0  0  0  0  0  0  0  0  0
   -0.3146    0.4572   -3.1640 H   0  0  0  0  0  0  0  0  0  0  0  0
    1.0876   -0.6420   -5.6600 H   0  0  0  0  0  0  0  0  0  0  0  0
   -0.4325    0.2277   -5.6524 H   0  0  0  0  0  0  0  0  0  0  0  0
    1.4463   -1.0735    0.8760 H   0  0  0  0  0  0  0  0  0  0  0  0
    0.0197   -1.7847    1.6479 H   0  0  0  0  0  0  0  0  0  0  0  0
   -0.6805   -1.9350   -4.3437 H   0  0  0  0  0  0  0  0  0  0  0  0
   -4.3819   -3.9961   -1.5521 H   0  0  0  0  0  0  0  0  0  0  0  0
   -4.4197   -4.4992    0.1462 H   0  0  0  0  0  0  0  0  0  0  0  0
   -2.8866   -4.0485   -0.6106 H   0  0  0  0  0  0  0  0  0  0  0  0
   -3.7858    1.6675    3.4679 H   0  0  0  0  0  0  0  0  0  0  0  0
    2.0795   -3.6985    1.6129 H   0  0  0  0  0  0  0  0  0  0  0  0
   -2.1024    3.1407    3.4189 H   0  0  0  0  0  0  0  0  0  0  0  0
    3.2009    0.5729   -5.0581 H   0  0  0  0  0  0  0  0  0  0  0  0
   -0.4690    2.6499   -5.0571 H   0  0  0  0  0  0  0  0  0  0  0  0
   -0.4943    1.7467    1.6911 H   0  0  0  0  0  0  0  0  0  0  0  0
   -0.2337    0.9883    3.2330 H   0  0  0  0  0  0  0  0  0  0  0  0
    2.8830   -3.0543    3.6136 H   0  0  0  0  0  0  0  0  0  0  0  0
    1.6213   -1.4154    4.8354 H   0  0  0  0  0  0  0  0  0  0  0  0
    1.2235   -0.6327    3.3354 H   0  0  0  0  0  0  0  0  0  0  0  0
    0.7016    4.7292   -4.8482 H   0  0  0  0  0  0  0  0  0  0  0  0
    0.4155    3.7718    2.5563 H   0  0  0  0  0  0  0  0  0  0  0  0
    2.1062    2.2243    5.8342 H   0  0  0  0  0  0  0  0  0  0  0  0
    1.0303    1.1237    5.0895 H   0  0  0  0  0  0  0  0  0  0  0  0
    4.0322   -0.5759    3.7569 H   0  0  0  0  0  0  0  0  0  0  0  0
    2.1170    3.6489    3.9866 H   0  0  0  0  0  0  0  0  0  0  0  0
    3.9114    1.5317    4.4768 H   0  0  0  0  0  0  0  0  0  0  0  0
    5.1069    3.3658   -4.7383 H   0  0  0  0  0  0  0  0  0  0  0  0
    2.8162    5.7417   -4.6812 H   0  0  0  0  0  0  0  0  0  0  0  0
  1 14  2  0  0  0  0
  2 25  1  0  0  0  0
  2 72  1  0  0  0  0
  3 27  1  0  0  0  0
  3 73  1  0  0  0  0
  4 11  1  0  0  0  0
  4 14  1  0  0  0  0
  4 51  1  0  0  0  0
  5  6  1  0  0  0  0
  5  7  1  0  0  0  0
  5 33  1  0  0  0  0
  5 34  1  0  0  0  0
  6  8  1  0  0  0  0
  6 35  1  0  0  0  0
  6 36  1  0  0  0  0
  7 17  1  0  0  0  0
  7 37  1  0  0  0  0
  7 38  1  0  0  0  0
  8 16  1  0  0  0  0
  8 39  1  0  0  0  0
  8 40  1  0  0  0  0
  9 10  1  0  0  0  0
  9 13  1  0  0  0  0
  9 41  1  0  0  0  0
  9 42  1  0  0  0  0
 10 14  1  0  0  0  0
 10 43  1  0  0  0  0
 10 44  1  0  0  0  0
 11 12  1  0  0  0  0
 11 45  1  0  0  0  0
 11 46  1  0  0  0  0
 12 15  1  0  0  0  0
 12 47  1  0  0  0  0
 12 48  1  0  0  0  0
 13 18  1  0  0  0  0
 13 49  1  0  0  0  0
 13 50  1  0  0  0  0
 15 20  2  0  0  0  0
 15 21  1  0  0  0  0
 16 52  1  0  0  0  0
 16 53  1  0  0  0  0
 16 54  1  0  0  0  0
 17 19  2  0  0  0  0
 17 55  1  0  0  0  0
 18 23  2  0  0  0  0
 18 56  1  0  0  0  0
 19 22  1  0  0  0  0
 19 57  1  0  0  0  0
 20 25  1  0  0  0  0
 20 58  1  0  0  0  0
 21 26  2  0  0  0  0
 21 59  1  0  0  0  0
 22 28  1  0  0  0  0
 22 60  1  0  0  0  0
 22 61  1  0  0  0  0
 23 24  1  0  0  0  0
 23 62  1  0  0  0  0
 24 30  1  0  0  0  0
 24 63  1  0  0  0  0
 24 64  1  0  0  0  0
 25 27  2  0  0  0  0
 26 27  1  0  0  0  0
 26 65  1  0  0  0  0
 28 31  2  0  0  0  0
 28 66  1  0  0  0  0
 29 31  1  0  0  0  0
 29 32  1  0  0  0  0
 29 67  1  0  0  0  0
 29 68  1  0  0  0  0
 30 32  2  0  0  0  0
 30 69  1  0  0  0  0
 31 70  1  0  0  0  0
 32 71  1  0  0  0  0
M  END

> <PUBCHEM_BONDANNOTATIONS>
15  20  8
15  21  8
20  25  8
21  26  8
25  27  8
26  27  8

> <StdInChI>
InChI=1S/C28H41NO3/c1-2-3-4-5-6-7-8-9-10-11-12-13-14-15-16-17-18-19-28(32)29-23-22-25-20-21-26(30)27(31)24-25/h6-7,9-10,12-13,15-16,20-21,24,30-31H,2-5,8,11,14,17-19,22-23H2,1H3,(H,29,32)/b7-6-,10-9-,13-12-,16-15-

> <StdInChIKey>
MVVPIAAVGAWJNQ-DOFZRALJSA-N

> <AuxInfo>
1/1/N:16,8,6,5,7,17,19,22,28,31,29,32,30,24,23,18,13,9,10,21,26,12,11,20,15,27,25,14,4,3,2,1/rA:73nOOONCCCCCCCCCCCCCCCCCCCCCCCCCCCCHHHHHHHHHHHHHHHHHHHHHHHHHHHHHHHHHHHHHHHHH/rB:;;;;s5;s5;s6;;s9;s4;s11;s9;d1s4s10;s12;s8;s7;s13;d17;d15;s15;s19;d18;s23;s2s20;d21;s3d25s26;s22;;s24;d28s29;s29d30;s5;s5;s6;s6;s7;s7;s8;s8;s9;s9;s10;s10;s11;s11;s12;s12;s13;s13;s4;s16;s16;s16;s17;s18;s19;s20;s21;s22;s22;s23;s24;s24;s26;s28;s29;s29;s30;s31;s32;s2;s3;/rC:-1.3164,-3.1851,-2.5886;4.6263,2.6329,-4.8305;3.2536,4.9779,-4.7193;-.4083,-1.525,-3.5476;-3.6179,-.477,1.5767;-3.5625,-1.9904,1.2334;-2.8655,-.1073,2.8806;-4.1789,-2.3482,-.1448;.4963,-2.6394,-.2627;-.4032,-1.6837,-1.0899;.2709,-.3179,-3.6712;.5226,.1286,-5.1276;.93,-2.0145,1.0896;-.7082,-2.1353,-2.4415;1.26,1.4179,-5.0948;-3.9519,-3.8168,-.5647;-2.8955,1.317,3.1918;1.8054,-2.8008,1.9434;-1.8826,2.2028,3.1646;2.673,1.4495,-5.0295;.5542,2.6407,-5.0301;-.5119,1.9227,2.77;2.2837,-2.4151,3.1414;2.0135,-1.1679,3.8462;3.3689,2.6682,-4.8987;1.2408,3.8609,-4.9015;2.6482,3.8804,-4.8364;.4935,2.9273,3.0792;1.8755,1.7746,4.8643;3.1243,-.2409,3.9941;1.5186,2.8526,3.9507;3.0512,1.0299,4.4325;-3.178,.0923,.752;-4.6661,-.1776,1.6635;-4.0813,-2.5551,2.012;-2.5223,-2.3224,1.256;-3.3108,-.6454,3.7214;-1.8503,-.4944,2.7945;-3.7569,-1.7072,-.9233;-5.2535,-2.1526,-.1178;1.3906,-2.8825,-.8438;-.0461,-3.5704,-.074;.0747,-.7031,-1.0884;-1.345,-1.5176,-.5756;1.2393,-.4148,-3.1682;-.3146,.4572,-3.164;1.0876,-.642,-5.66;-.4325,.2277,-5.6524;1.4463,-1.0735,.876;.0197,-1.7847,1.6479;-.6805,-1.935,-4.3437;-4.3819,-3.9961,-1.5521;-4.4197,-4.4992,.1462;-2.8866,-4.0485,-.6106;-3.7858,1.6675,3.4679;2.0795,-3.6985,1.6129;-2.1024,3.1407,3.4189;3.2009,.5729,-5.0581;-.469,2.6499,-5.0571;-.4943,1.7467,1.6911;-.2337,.9883,3.233;2.883,-3.0543,3.6136;1.6213,-1.4154,4.8354;1.2235,-.6327,3.3354;.7016,4.7292,-4.8482;.4155,3.7718,2.5563;2.1062,2.2243,5.8342;1.0303,1.1237,5.0895;4.0322,-.5759,3.7569;2.117,3.6489,3.9866;3.9114,1.5317,4.4768;5.1069,3.3658,-4.7383;2.8162,5.7417,-4.6812;

> <Formula>
C28 H41 N O3

> <Mw>
439.63

> <SMILES>
O=C(C([H])([H])C([H])([H])C([H])([H])/C(/[H])=C(/[H])\C([H])([H])/C(/[H])=C(/[H])\C([H])([H])/C(/[H])=C(/[H])\C([H])([H])/C(/[H])=C(/[H])\C([H])([H])C([H])([H])C([H])([H])C([H])([H])C([H])([H])[H])N([H])C([H])([H])C([H])([H])C1C([H])=C([H])C(=C(C=1[H])O[H])O[H]

> <CSID>
4445314

$$$$
