5311312
  Marvin  12300716493D          

163165  0  0  1  0            999 V2000
   -1.6901  -10.8692   -5.8443 S   0  0  0  0  0  0  0  0  0  0  0  0
   -4.0113    7.7397    2.2202 S   0  0  0  0  0  0  0  0  0  0  0  0
   -3.1942   -1.0637    2.1109 O   0  0  0  0  0  0  0  0  0  0  0  0
   -1.2595   -4.6736    2.7919 O   0  0  0  0  0  0  0  0  0  0  0  0
    1.7982   -8.1743   -2.8177 O   0  0  0  0  0  0  0  0  0  0  0  0
   -0.6991    2.6285    1.5069 O   0  0  0  0  0  0  0  0  0  0  0  0
    2.8974   -5.8992    0.2180 O   0  0  0  0  0  0  0  0  0  0  0  0
    3.8857    2.8960    0.8638 O   0  0  0  0  0  0  0  0  0  0  0  0
    2.6232    5.4643   -3.3702 O   0  0  0  0  0  0  0  0  0  0  0  0
    1.2615    8.6611    0.8144 O   0  0  0  0  0  0  0  0  0  0  0  0
   -1.4307   -5.2400   -4.4187 O   0  0  0  0  0  0  0  0  0  0  0  0
    5.6276    2.4520   -2.4345 O   0  0  0  0  0  0  0  0  0  0  0  0
    6.5737    3.0294   -0.6692 O   0  0  0  0  0  0  0  0  0  0  0  0
    0.3759    7.3626    3.3366 O   0  0  0  0  0  0  0  0  0  0  0  0
   -0.9770    3.5459    5.6125 O   0  0  0  0  0  0  0  0  0  0  0  0
   -1.2196    4.1858    3.6697 O   0  0  0  0  0  0  0  0  0  0  0  0
   -1.6242   -2.0121    0.9088 N   0  0  0  0  0  0  0  0  0  0  0  0
   -0.7339    0.6029    0.6652 N   0  0  0  0  0  0  0  0  0  0  0  0
    0.8981   -6.7869    0.0222 N   0  0  0  0  0  0  0  0  0  0  0  0
    1.7893    2.6190    0.3132 N   0  0  0  0  0  0  0  0  0  0  0  0
    0.3241   -4.2074    1.3531 N   0  0  0  0  0  0  0  0  0  0  0  0
   -0.3197   -7.7458   -2.4831 N   0  0  0  0  0  0  0  0  0  0  0  0
    2.3877    5.0070   -1.2406 N   0  0  0  0  0  0  0  0  0  0  0  0
    1.5497    7.6731   -1.0142 N   0  0  0  0  0  0  0  0  0  0  0  0
    0.2262    6.0788    1.5328 N   0  0  0  0  0  0  0  0  0  0  0  0
   -0.7333    9.2045   -3.2924 N   0  0  0  0  0  0  0  0  0  0  0  0
   -2.6457   -6.2242   -2.9485 N   0  0  0  0  0  0  0  0  0  0  0  0
   -0.1001   11.3078   -3.2071 N   0  0  0  0  0  0  0  0  0  0  0  0
    2.7755    5.8970    3.6972 N   0  0  0  0  0  0  0  0  0  0  0  0
   -1.9112   -3.3825    0.9810 C   0  0  1  0  0  0  0  0  0  0  0  0
   -2.0932   -3.9133   -0.4854 C   0  0  1  0  0  0  0  0  0  0  0  0
    0.4270   -9.1469    0.1851 C   0  0  0  0  0  0  0  0  0  0  0  0
    1.1704   -8.0197   -0.5983 C   0  0  1  0  0  0  0  0  0  0  0  0
    0.7495   -9.2688    1.7127 C   0  0  1  0  0  0  0  0  0  0  0  0
   -2.1003    0.3187    0.5925 C   0  0  2  0  0  0  0  0  0  0  0  0
    1.3553    1.5995    1.1949 C   0  0  2  0  0  0  0  0  0  0  0  0
   -2.3298   -0.9701    1.2484 C   0  0  0  0  0  0  0  0  0  0  0  0
   -2.5359    0.3428   -0.9061 C   0  0  0  0  0  0  0  0  0  0  0  0
   -0.9103   -4.1153    1.7587 C   0  0  0  0  0  0  0  0  0  0  0  0
   -3.4031   -3.3795   -1.1377 C   0  0  0  0  0  0  0  0  0  0  0  0
   -0.8620   -3.6779   -1.4178 C   0  0  0  0  0  0  0  0  0  0  0  0
    0.8795   -7.9765   -2.0302 C   0  0  0  0  0  0  0  0  0  0  0  0
   -0.0974    1.6288    1.1392 C   0  0  0  0  0  0  0  0  0  0  0  0
    2.0332    1.5165    2.6151 C   0  0  0  0  0  0  0  0  0  0  0  0
   -0.1140  -10.3545    2.4096 C   0  0  0  0  0  0  0  0  0  0  0  0
    2.2564   -9.4859    2.0265 C   0  0  0  0  0  0  0  0  0  0  0  0
    3.2416    3.8880   -1.1417 C   0  0  2  0  0  0  0  0  0  0  0  0
    1.3100    6.9684   -2.2014 C   0  0  1  0  0  0  0  0  0  0  0  0
    1.3113   -5.1299    1.7070 C   0  0  0  0  0  0  0  0  0  0  0  0
   -0.7219   -7.3638   -3.7769 C   0  0  1  0  0  0  0  0  0  0  0  0
    1.7328   -5.9595    0.5891 C   0  0  0  0  0  0  0  0  0  0  0  0
   -2.3384    1.6283   -1.6340 C   0  0  0  0  0  0  0  0  0  0  0  0
    2.9743    3.1116    0.0751 C   0  0  0  0  0  0  0  0  0  0  0  0
    1.4757    7.9979   -3.3658 C   0  0  0  0  0  0  0  0  0  0  0  0
    2.1527    5.7726   -2.2812 C   0  0  0  0  0  0  0  0  0  0  0  0
    1.4949    1.0672    3.9400 C   0  0  0  0  0  0  0  0  0  0  0  0
   -0.2531    6.9373    0.5391 C   0  0  2  0  0  0  0  0  0  0  0  0
   -1.4761   -8.4750   -4.5578 C   0  0  0  0  0  0  0  0  0  0  0  0
    4.7398    4.3155   -1.3325 C   0  0  0  0  0  0  0  0  0  0  0  0
    0.8570    7.7716    0.0786 C   0  0  0  0  0  0  0  0  0  0  0  0
   -1.5508    7.7213    0.8949 C   0  0  0  0  0  0  0  0  0  0  0  0
   -1.4441    1.7266   -2.7284 C   0  0  0  0  0  0  0  0  0  0  0  0
   -3.0522    2.7893   -1.2533 C   0  0  0  0  0  0  0  0  0  0  0  0
    0.6080    9.1956   -3.3010 C   0  0  0  0  0  0  0  0  0  0  0  0
   -1.6072   -6.2152   -3.7033 C   0  0  0  0  0  0  0  0  0  0  0  0
   -0.6862   -9.7737   -4.8107 C   0  0  0  0  0  0  0  0  0  0  0  0
    2.4349    1.0158    5.0065 C   0  0  0  0  0  0  0  0  0  0  0  0
    0.1573    0.7269    4.2593 C   0  0  0  0  0  0  0  0  0  0  0  0
   -2.7604    6.8308    1.2808 C   0  0  0  0  0  0  0  0  0  0  0  0
    5.6838    3.2230   -1.4840 C   0  0  0  0  0  0  0  0  0  0  0  0
   -1.2521    2.9454   -3.4052 C   0  0  0  0  0  0  0  0  0  0  0  0
   -2.8635    4.0111   -1.9261 C   0  0  0  0  0  0  0  0  0  0  0  0
    0.6365    6.3226    2.7456 C   0  0  0  0  0  0  0  0  0  0  0  0
    1.4464    5.3284    3.4207 C   0  0  2  0  0  0  0  0  0  0  0  0
   -1.9588    4.0906   -2.9991 C   0  0  0  0  0  0  0  0  0  0  0  0
    0.9944   10.5312   -3.2432 C   0  0  0  0  0  0  0  0  0  0  0  0
    2.0752    0.6443    6.3130 C   0  0  0  0  0  0  0  0  0  0  0  0
   -0.2194    0.3613    5.5689 C   0  0  0  0  0  0  0  0  0  0  0  0
    0.7404    0.3167    6.5950 C   0  0  0  0  0  0  0  0  0  0  0  0
    0.8318    4.7143    4.7118 C   0  0  0  0  0  0  0  0  0  0  0  0
   -1.1524   10.4774   -3.2390 C   0  0  0  0  0  0  0  0  0  0  0  0
   -0.5558  -12.2614   -5.9563 C   0  0  0  0  0  0  0  0  0  0  0  0
   -5.1719    6.3885    2.5115 C   0  0  0  0  0  0  0  0  0  0  0  0
   -0.4956    4.1280    4.6493 C   0  0  0  0  0  0  0  0  0  0  0  0
   -2.8780   -3.5299    1.4799 H   0  0  0  0  0  0  0  0  0  0  0  0
   -2.2381   -4.9976   -0.4233 H   0  0  0  0  0  0  0  0  0  0  0  0
   -0.6510   -8.9878    0.0773 H   0  0  0  0  0  0  0  0  0  0  0  0
    0.6440  -10.1082   -0.2906 H   0  0  0  0  0  0  0  0  0  0  0  0
    2.2343   -8.2647   -0.5031 H   0  0  0  0  0  0  0  0  0  0  0  0
    0.4631   -8.3263    2.1886 H   0  0  0  0  0  0  0  0  0  0  0  0
   -2.6961    1.0806    1.1082 H   0  0  0  0  0  0  0  0  0  0  0  0
   -0.8163   -1.8125    0.4842 H   0  0  0  0  0  0  0  0  0  0  0  0
    1.6840    0.6882    0.6787 H   0  0  0  0  0  0  0  0  0  0  0  0
   -3.5989    0.0945   -0.9781 H   0  0  0  0  0  0  0  0  0  0  0  0
   -1.9990   -0.4525   -1.4308 H   0  0  0  0  0  0  0  0  0  0  0  0
   -0.1878   -0.0684    0.3098 H   0  0  0  0  0  0  0  0  0  0  0  0
   -4.2783   -3.6216   -0.5334 H   0  0  0  0  0  0  0  0  0  0  0  0
   -3.5720   -3.7883   -2.1313 H   0  0  0  0  0  0  0  0  0  0  0  0
   -3.3755   -2.3043   -1.2635 H   0  0  0  0  0  0  0  0  0  0  0  0
   -0.0744   -4.4080   -1.2315 H   0  0  0  0  0  0  0  0  0  0  0  0
   -0.4307   -2.6829   -1.3129 H   0  0  0  0  0  0  0  0  0  0  0  0
   -1.1201   -3.7648   -2.4660 H   0  0  0  0  0  0  0  0  0  0  0  0
   -0.0085   -6.5668    0.0945 H   0  0  0  0  0  0  0  0  0  0  0  0
    2.4111    2.5057    2.8452 H   0  0  0  0  0  0  0  0  0  0  0  0
    2.9319    0.9112    2.4542 H   0  0  0  0  0  0  0  0  0  0  0  0
   -1.1786  -10.1576    2.2686 H   0  0  0  0  0  0  0  0  0  0  0  0
    0.1083  -11.3475    2.0143 H   0  0  0  0  0  0  0  0  0  0  0  0
    0.0705  -10.3669    3.4865 H   0  0  0  0  0  0  0  0  0  0  0  0
    2.4287   -9.5830    3.1000 H   0  0  0  0  0  0  0  0  0  0  0  0
    2.6305  -10.3853    1.5335 H   0  0  0  0  0  0  0  0  0  0  0  0
    2.8616   -8.6391    1.7009 H   0  0  0  0  0  0  0  0  0  0  0  0
    2.9832    3.2146   -1.9667 H   0  0  0  0  0  0  0  0  0  0  0  0
    0.2825    6.6048   -2.2760 H   0  0  0  0  0  0  0  0  0  0  0  0
    1.1221    2.9696   -0.2429 H   0  0  0  0  0  0  0  0  0  0  0  0
    1.0058   -5.7995    2.5159 H   0  0  0  0  0  0  0  0  0  0  0  0
    2.1475   -4.5470    2.1022 H   0  0  0  0  0  0  0  0  0  0  0  0
    0.5840   -3.5855    0.7054 H   0  0  0  0  0  0  0  0  0  0  0  0
    0.1471   -7.0859   -4.3869 H   0  0  0  0  0  0  0  0  0  0  0  0
   -1.0077   -7.8231   -1.8541 H   0  0  0  0  0  0  0  0  0  0  0  0
    1.2536    7.5147   -4.3203 H   0  0  0  0  0  0  0  0  0  0  0  0
    2.5218    8.3170   -3.4129 H   0  0  0  0  0  0  0  0  0  0  0  0
    1.9437    5.2485   -0.4535 H   0  0  0  0  0  0  0  0  0  0  0  0
   -0.5504    6.2429   -0.2480 H   0  0  0  0  0  0  0  0  0  0  0  0
    5.0261    4.9531   -0.4896 H   0  0  0  0  0  0  0  0  0  0  0  0
    4.8650    4.9357   -2.2220 H   0  0  0  0  0  0  0  0  0  0  0  0
   -2.4001   -8.7390   -4.0323 H   0  0  0  0  0  0  0  0  0  0  0  0
   -1.7588   -8.0671   -5.5362 H   0  0  0  0  0  0  0  0  0  0  0  0
    2.3369    8.1803   -1.0250 H   0  0  0  0  0  0  0  0  0  0  0  0
   -1.8434    8.3378    0.0397 H   0  0  0  0  0  0  0  0  0  0  0  0
   -1.3305    8.4134    1.7104 H   0  0  0  0  0  0  0  0  0  0  0  0
   -0.9184    0.9101   -3.0505 H   0  0  0  0  0  0  0  0  0  0  0  0
   -3.7225    2.7582   -0.4814 H   0  0  0  0  0  0  0  0  0  0  0  0
    0.2544   -9.5476   -5.3182 H   0  0  0  0  0  0  0  0  0  0  0  0
   -0.4683  -10.2649   -3.8599 H   0  0  0  0  0  0  0  0  0  0  0  0
    0.3065    5.1854    1.2629 H   0  0  0  0  0  0  0  0  0  0  0  0
    3.4173    1.2587    4.8490 H   0  0  0  0  0  0  0  0  0  0  0  0
   -0.5830    0.7478    3.5625 H   0  0  0  0  0  0  0  0  0  0  0  0
   -3.2203    6.4288    0.3759 H   0  0  0  0  0  0  0  0  0  0  0  0
   -2.4370    5.9897    1.8955 H   0  0  0  0  0  0  0  0  0  0  0  0
   -0.6015    2.9986   -4.1925 H   0  0  0  0  0  0  0  0  0  0  0  0
   -3.3860    4.8406   -1.6384 H   0  0  0  0  0  0  0  0  0  0  0  0
   -1.3059    8.4230   -3.3218 H   0  0  0  0  0  0  0  0  0  0  0  0
    1.6425    4.5171    2.7248 H   0  0  0  0  0  0  0  0  0  0  0  0
    1.9547   10.8804   -3.2322 H   0  0  0  0  0  0  0  0  0  0  0  0
   -1.8182    4.9782   -3.4865 H   0  0  0  0  0  0  0  0  0  0  0  0
    2.7813    0.6159    7.0531 H   0  0  0  0  0  0  0  0  0  0  0  0
   -1.1926    0.1322    5.7837 H   0  0  0  0  0  0  0  0  0  0  0  0
    0.4730    0.0491    7.5453 H   0  0  0  0  0  0  0  0  0  0  0  0
   -2.8227   -6.9625   -2.4020 H   0  0  0  0  0  0  0  0  0  0  0  0
   -3.2293   -5.4984   -2.9418 H   0  0  0  0  0  0  0  0  0  0  0  0
    0.8087    5.4817    5.4888 H   0  0  0  0  0  0  0  0  0  0  0  0
    1.5164    3.9353    5.0584 H   0  0  0  0  0  0  0  0  0  0  0  0
   -2.1298   10.7727   -3.2261 H   0  0  0  0  0  0  0  0  0  0  0  0
    3.1902    6.1572    2.7989 H   0  0  0  0  0  0  0  0  0  0  0  0
    3.3574    5.1491    4.0812 H   0  0  0  0  0  0  0  0  0  0  0  0
    5.0121    2.5465   -3.0567 H   0  0  0  0  0  0  0  0  0  0  0  0
   -1.0243  -13.0300   -6.5697 H   0  0  0  0  0  0  0  0  0  0  0  0
   -0.3614  -12.6636   -4.9619 H   0  0  0  0  0  0  0  0  0  0  0  0
    0.3781  -11.9481   -6.4236 H   0  0  0  0  0  0  0  0  0  0  0  0
   -5.9892    6.7562    3.1313 H   0  0  0  0  0  0  0  0  0  0  0  0
   -5.5767    6.0367    1.5623 H   0  0  0  0  0  0  0  0  0  0  0  0
   -4.6826    5.5632    3.0308 H   0  0  0  0  0  0  0  0  0  0  0  0
   -0.5249    3.4579    6.3615 H   0  0  0  0  0  0  0  0  0  0  0  0
  1 66  1  0  0  0  0
  1 82  1  0  0  0  0
  2 69  1  0  0  0  0
  2 83  1  0  0  0  0
  3 37  2  0  0  0  0
  4 39  2  0  0  0  0
  5 42  2  0  0  0  0
  6 43  2  0  0  0  0
  7 51  2  0  0  0  0
  8 53  2  0  0  0  0
  9 55  2  0  0  0  0
 10 60  2  0  0  0  0
 11 65  2  0  0  0  0
 12 70  1  0  0  0  0
 12156  1  0  0  0  0
 13 70  2  0  0  0  0
 14 73  2  0  0  0  0
 15 84  1  0  0  0  0
 15163  1  0  0  0  0
 16 84  2  0  0  0  0
 30 17  1  0  0  0  0
 17 37  1  0  0  0  0
 17 92  1  0  0  0  0
 35 18  1  0  0  0  0
 18 43  1  0  0  0  0
 18 96  1  0  0  0  0
 33 19  1  0  0  0  0
 19 51  1  0  0  0  0
 19103  1  0  0  0  0
 36 20  1  0  0  0  0
 20 53  1  0  0  0  0
 20114  1  0  0  0  0
 21 39  1  0  0  0  0
 21 49  1  0  0  0  0
 21117  1  0  0  0  0
 22 42  1  0  0  0  0
 50 22  1  0  0  0  0
 22119  1  0  0  0  0
 47 23  1  0  0  0  0
 23 55  1  0  0  0  0
 23122  1  0  0  0  0
 48 24  1  0  0  0  0
 24 60  1  0  0  0  0
 24128  1  0  0  0  0
 57 25  1  0  0  0  0
 25 73  1  0  0  0  0
 25135  1  0  0  0  0
 26 64  1  0  0  0  0
 26 81  1  0  0  0  0
 26142  1  0  0  0  0
 27 65  1  0  0  0  0
 27149  1  0  0  0  0
 27150  1  0  0  0  0
 28 76  1  0  0  0  0
 28 81  2  0  0  0  0
 74 29  1  0  0  0  0
 29154  1  0  0  0  0
 29155  1  0  0  0  0
 30 31  1  0  0  0  0
 30 39  1  0  0  0  0
 30 85  1  0  0  0  0
 31 40  1  0  0  0  0
 31 41  1  0  0  0  0
 31 86  1  0  0  0  0
 32 33  1  0  0  0  0
 32 34  1  0  0  0  0
 32 87  1  0  0  0  0
 32 88  1  0  0  0  0
 33 42  1  0  0  0  0
 33 89  1  0  0  0  0
 34 45  1  0  0  0  0
 34 46  1  0  0  0  0
 34 90  1  0  0  0  0
 35 37  1  0  0  0  0
 35 38  1  0  0  0  0
 35 91  1  0  0  0  0
 36 43  1  0  0  0  0
 36 44  1  0  0  0  0
 36 93  1  0  0  0  0
 38 52  1  0  0  0  0
 38 94  1  0  0  0  0
 38 95  1  0  0  0  0
 40 97  1  0  0  0  0
 40 98  1  0  0  0  0
 40 99  1  0  0  0  0
 41100  1  0  0  0  0
 41101  1  0  0  0  0
 41102  1  0  0  0  0
 44 56  1  0  0  0  0
 44104  1  0  0  0  0
 44105  1  0  0  0  0
 45106  1  0  0  0  0
 45107  1  0  0  0  0
 45108  1  0  0  0  0
 46109  1  0  0  0  0
 46110  1  0  0  0  0
 46111  1  0  0  0  0
 47 53  1  0  0  0  0
 47 59  1  0  0  0  0
 47112  1  0  0  0  0
 48 54  1  0  0  0  0
 48 55  1  0  0  0  0
 48113  1  0  0  0  0
 49 51  1  0  0  0  0
 49115  1  0  0  0  0
 49116  1  0  0  0  0
 50 58  1  0  0  0  0
 50 65  1  0  0  0  0
 50118  1  0  0  0  0
 52 62  2  0  0  0  0
 52 63  1  0  0  0  0
 54 64  1  0  0  0  0
 54120  1  0  0  0  0
 54121  1  0  0  0  0
 56 67  2  0  0  0  0
 56 68  1  0  0  0  0
 57 60  1  0  0  0  0
 57 61  1  0  0  0  0
 57123  1  0  0  0  0
 58 66  1  0  0  0  0
 58126  1  0  0  0  0
 58127  1  0  0  0  0
 59 70  1  0  0  0  0
 59124  1  0  0  0  0
 59125  1  0  0  0  0
 61 69  1  0  0  0  0
 61129  1  0  0  0  0
 61130  1  0  0  0  0
 62 71  1  0  0  0  0
 62131  1  0  0  0  0
 63 72  2  0  0  0  0
 63132  1  0  0  0  0
 64 76  2  0  0  0  0
 66133  1  0  0  0  0
 66134  1  0  0  0  0
 67 77  1  0  0  0  0
 67136  1  0  0  0  0
 68 78  2  0  0  0  0
 68137  1  0  0  0  0
 69138  1  0  0  0  0
 69139  1  0  0  0  0
 71 75  2  0  0  0  0
 71140  1  0  0  0  0
 72 75  1  0  0  0  0
 72141  1  0  0  0  0
 73 74  1  0  0  0  0
 74 80  1  0  0  0  0
 74143  1  0  0  0  0
 75145  1  0  0  0  0
 76144  1  0  0  0  0
 77 79  2  0  0  0  0
 77146  1  0  0  0  0
 78 79  1  0  0  0  0
 78147  1  0  0  0  0
 79148  1  0  0  0  0
 80 84  1  0  0  0  0
 80151  1  0  0  0  0
 80152  1  0  0  0  0
 81153  1  0  0  0  0
 82157  1  0  0  0  0
 82158  1  0  0  0  0
 82159  1  0  0  0  0
 83160  1  0  0  0  0
 83161  1  0  0  0  0
 83162  1  0  0  0  0
M  END

> <PUBCHEM_BONDANNOTATIONS>
30  17  6
35  18  5
33  19  6
36  20  5
50  22  6
47  23  6
48  24  5
57  25  5
26  64  8
26  81  8
28  76  8
28  81  8
74  29  5
52  62  8
52  63  8
56  67  8
56  68  8
62  71  8
63  72  8
64  76  8
67  77  8
68  78  8
71  75  8
72  75  8
77  79  8
78  79  8

> <StdInChI>
InChI=1S/C55H79N13O14S2/c1-30(2)21-38(50(77)62-36(47(57)74)17-19-83-5)61-43(69)28-59-55(82)46(31(3)4)68-54(81)40(23-33-15-11-8-12-16-33)65-51(78)39(22-32-13-9-7-10-14-32)64-53(80)42(26-45(72)73)67-52(79)41(24-34-27-58-29-60-34)66-49(76)37(18-20-84-6)63-48(75)35(56)25-44(70)71/h7-16,27,29-31,35-42,46H,17-26,28,56H2,1-6H3,(H2,57,74)(H,58,60)(H,59,82)(H,61,69)(H,62,77)(H,63,75)(H,64,80)(H,65,78)(H,66,76)(H,67,79)(H,68,81)(H,70,71)(H,72,73)/t35-,36-,37-,38-,39-,40-,41-,42-,46-/m0/s1

> <StdInChIKey>
NHXYSAFTNPANFK-HDMCBQFHSA-N

> <AuxInfo>
1/1/N:45,46,40,41,82,83,79,75,77,78,71,72,67,68,62,63,58,61,66,69,32,44,38,54,80,59,76,49,81,34,31,56,52,64,74,50,57,33,36,35,48,47,51,84,70,30,65,73,60,42,43,55,53,37,39,29,27,28,21,26,19,22,25,20,18,24,23,17,7,15,16,12,13,11,14,10,5,6,9,8,3,4,1,2/E:(1,2)(3,4)(9,10)(11,12)(13,14)(15,16)(70,71)(72,73)/it:im/rA:163cSSOOOOOOOOOOOOOONNNNNNNNNNNNNCCCCCCCCCCCCCCCCCCCCCCCCCCCCCCCCCCCCCCCCCCCCCCCCCCCCCCCHHHHHHHHHHHHHHHHHHHHHHHHHHHHHHHHHHHHHHHHHHHHHHHHHHHHHHHHHHHHHHHHHHHHHHHHHHHHHHH/rB:;;;;;;;;;;;;;;;;;;;;;;;;;;;;s17;s30;;s19s32;s32;s18;s20;d3s17s35;s35;d4s21s30;s31;s31;d5s22s33;d6s18s36;s36;s34;s34;s23;s24;s21;s22;d7s19s49;s38;d8s20s47;s48;d9s23s48;s44;s25;s50;s47;d10s24s57;s57;d52;s52;s26s54;d11s27s50;s1s58;d56;s56;s2s61;s12d13s59;s62;d63;d14s25;s29s73;d71s72;s28d64;s67;d68;d77s78;s74;s26d28;s1;s2;s15d16s80;s30;s31;s32;s32;s33;s34;s35;s17;s36;s38;s38;s18;s40;s40;s40;s41;s41;s41;s19;s44;s44;s45;s45;s45;s46;s46;s46;s47;s48;s20;s49;s49;s21;s50;s22;s54;s54;s23;s57;s59;s59;s58;s58;s24;s61;s61;s62;s63;s66;s66;s25;s67;s68;s69;s69;s71;s72;s26;s74;s76;s75;s77;s78;s79;s27;s27;s80;s80;s81;s29;s29;s12;s82;s82;s82;s83;s83;s83;s15;/rC:-1.6901,-10.8692,-5.8443;-4.0113,7.7397,2.2202;-3.1942,-1.0637,2.1109;-1.2595,-4.6736,2.7919;1.7982,-8.1743,-2.8177;-.6991,2.6285,1.5069;2.8974,-5.8992,.218;3.8857,2.896,.8638;2.6232,5.4643,-3.3702;1.2615,8.6611,.8144;-1.4307,-5.24,-4.4187;5.6276,2.452,-2.4345;6.5737,3.0294,-.6692;.3759,7.3626,3.3366;-.977,3.5459,5.6125;-1.2196,4.1858,3.6697;-1.6242,-2.0121,.9088;-.7339,.6029,.6652;.8981,-6.7869,.0222;1.7893,2.619,.3132;.3241,-4.2074,1.3531;-.3197,-7.7458,-2.4831;2.3877,5.007,-1.2406;1.5497,7.6731,-1.0142;.2262,6.0788,1.5328;-.7333,9.2045,-3.2924;-2.6457,-6.2242,-2.9485;-.1001,11.3078,-3.2071;2.7755,5.897,3.6972;-1.9112,-3.3825,.981;-2.0932,-3.9133,-.4854;.427,-9.1469,.1851;1.1704,-8.0197,-.5983;.7495,-9.2688,1.7127;-2.1003,.3187,.5925;1.3553,1.5995,1.1949;-2.3298,-.9701,1.2484;-2.5359,.3428,-.9061;-.9103,-4.1153,1.7587;-3.4031,-3.3795,-1.1377;-.862,-3.6779,-1.4178;.8795,-7.9765,-2.0302;-.0974,1.6288,1.1392;2.0332,1.5165,2.6151;-.114,-10.3545,2.4096;2.2564,-9.4859,2.0265;3.2416,3.888,-1.1417;1.31,6.9684,-2.2014;1.3113,-5.1299,1.707;-.7219,-7.3638,-3.7769;1.7328,-5.9595,.5891;-2.3384,1.6283,-1.634;2.9743,3.1116,.0751;1.4757,7.9979,-3.3658;2.1527,5.7726,-2.2812;1.4949,1.0672,3.94;-.2531,6.9373,.5391;-1.4761,-8.475,-4.5578;4.7398,4.3155,-1.3325;.857,7.7716,.0786;-1.5508,7.7213,.8949;-1.4441,1.7266,-2.7284;-3.0522,2.7893,-1.2533;.608,9.1956,-3.301;-1.6072,-6.2152,-3.7033;-.6862,-9.7737,-4.8107;2.4349,1.0158,5.0065;.1573,.7269,4.2593;-2.7604,6.8308,1.2808;5.6838,3.223,-1.484;-1.2521,2.9454,-3.4052;-2.8635,4.0111,-1.9261;.6365,6.3226,2.7456;1.4464,5.3284,3.4207;-1.9588,4.0906,-2.9991;.9944,10.5312,-3.2432;2.0752,.6443,6.313;-.2194,.3613,5.5689;.7404,.3167,6.595;.8318,4.7143,4.7118;-1.1524,10.4774,-3.239;-.5558,-12.2614,-5.9563;-5.1719,6.3885,2.5115;-.4956,4.128,4.6493;-2.878,-3.5299,1.4799;-2.2381,-4.9976,-.4233;-.651,-8.9878,.0773;.644,-10.1082,-.2906;2.2343,-8.2647,-.5031;.4631,-8.3263,2.1886;-2.6961,1.0806,1.1082;-.8163,-1.8125,.4842;1.684,.6882,.6787;-3.5989,.0945,-.9781;-1.999,-.4525,-1.4308;-.1878,-.0684,.3098;-4.2783,-3.6216,-.5334;-3.572,-3.7883,-2.1313;-3.3755,-2.3043,-1.2635;-.0744,-4.408,-1.2315;-.4307,-2.6829,-1.3129;-1.1201,-3.7648,-2.466;-.0085,-6.5668,.0945;2.4111,2.5057,2.8452;2.9319,.9112,2.4542;-1.1786,-10.1576,2.2686;.1083,-11.3475,2.0143;.0705,-10.3669,3.4865;2.4287,-9.583,3.1;2.6305,-10.3853,1.5335;2.8616,-8.6391,1.7009;2.9832,3.2146,-1.9667;.2825,6.6048,-2.276;1.1221,2.9696,-.2429;1.0058,-5.7995,2.5159;2.1475,-4.547,2.1022;.584,-3.5855,.7054;.1471,-7.0859,-4.3869;-1.0077,-7.8231,-1.8541;1.2536,7.5147,-4.3203;2.5218,8.317,-3.4129;1.9437,5.2485,-.4535;-.5504,6.2429,-.248;5.0261,4.9531,-.4896;4.865,4.9357,-2.222;-2.4001,-8.739,-4.0323;-1.7588,-8.0671,-5.5362;2.3369,8.1803,-1.025;-1.8434,8.3378,.0397;-1.3305,8.4134,1.7104;-.9184,.9101,-3.0505;-3.7225,2.7582,-.4814;.2544,-9.5476,-5.3182;-.4683,-10.2649,-3.8599;.3065,5.1854,1.2629;3.4173,1.2587,4.849;-.583,.7478,3.5625;-3.2203,6.4288,.3759;-2.437,5.9897,1.8955;-.6015,2.9986,-4.1925;-3.386,4.8406,-1.6384;-1.3059,8.423,-3.3218;1.6425,4.5171,2.7248;1.9547,10.8804,-3.2322;-1.8182,4.9782,-3.4865;2.7813,.6159,7.0531;-1.1926,.1322,5.7837;.473,.0491,7.5453;-2.8227,-6.9625,-2.402;-3.2293,-5.4984,-2.9418;.8087,5.4817,5.4888;1.5164,3.9353,5.0584;-2.1298,10.7727,-3.2261;3.1902,6.1572,2.7989;3.3574,5.1491,4.0812;5.0121,2.5465,-3.0567;-1.0243,-13.03,-6.5697;-.3614,-12.6636,-4.9619;.3781,-11.9481,-6.4236;-5.9892,6.7562,3.1313;-5.5767,6.0367,1.5623;-4.6826,5.5632,3.0308;-.5249,3.4579,6.3615;

> <Formula>
C55 H79 N13 O14 S2

> <Mw>
1210.424

> <SMILES>
S(C([H])([H])[H])C([H])([H])C([H])([H])[C@@]([H])(C(N([H])[H])=O)N([H])C([C@]([H])(C([H])([H])C([H])(C([H])([H])[H])C([H])([H])[H])N([H])C(C([H])([H])N([H])C([C@]([H])(C([H])(C([H])([H])[H])C([H])([H])[H])N([H])C([C@]([H])(C([H])([H])C1C([H])=C([H])C([H])=C([H])C=1[H])N([H])C([C@]([H])(C([H])([H])C1C([H])=C([H])C([H])=C([H])C=1[H])N([H])C([C@]([H])(C([H])([H])C(=O)O[H])N([H])C([C@]([H])(C([H])([H])C1=C([H])N=C([H])N1[H])N([H])C([C@]([H])(C([H])([H])C([H])([H])SC([H])([H])[H])N([H])C([C@]([H])(C([H])([H])C(=O)O[H])N([H])[H])=O)=O)=O)=O)=O)=O)=O)=O)=O

> <CSID>
4470819

$$$$
