5892
  Marvin  12300703363D          

 71 75  0  0  1  0            999 V2000
   -0.8720   -2.0960    2.1262 P   0  0  2  0  0  0  0  0  0  0  0  0
   -1.5953   -0.4405    0.2116 P   0  0  1  0  0  0  0  0  0  0  0  0
    0.3311    1.4403    4.0635 O   0  0  0  0  0  0  0  0  0  0  0  0
    0.5418   -0.9048   -4.2160 O   0  0  0  0  0  0  0  0  0  0  0  0
    2.6246    0.4151    6.3466 O   0  0  0  0  0  0  0  0  0  0  0  0
    1.1624    2.4857    7.4129 O   0  0  0  0  0  0  0  0  0  0  0  0
   -2.9804   -1.3531   -3.6189 O   0  0  0  0  0  0  0  0  0  0  0  0
   -2.1576   -0.7463   -6.1636 O   0  0  0  0  0  0  0  0  0  0  0  0
   -0.0597   -1.1257    2.8516 O   0  0  0  0  0  0  0  0  0  0  0  0
   -1.4225   -0.4450   -1.2309 O   0  0  0  0  0  0  0  0  0  0  0  0
   -1.0408   -1.6763    0.7471 O   0  0  0  0  0  0  0  0  0  0  0  0
   -2.1588   -2.3027    2.7505 O   0  0  0  0  0  0  0  0  0  0  0  0
   -0.1909   -3.3654    2.0998 O   0  0  0  0  0  0  0  0  0  0  0  0
   -0.9591    0.7436    0.7410 O   0  5  0  0  0  0  0  0  0  0  0  0
   -3.0116   -0.3511    0.4620 O   0  0  0  0  0  0  0  0  0  0  0  0
    5.3215   -1.1807   -5.9694 O   0  0  0  0  0  0  0  0  0  0  0  0
   -0.2565    3.6117    4.9052 N   0  0  0  0  0  0  0  0  0  0  0  0
    1.2124   -2.1773   -6.0799 N   0  3  0  0  0  0  0  0  0  0  0  0
   -0.9968    5.7266    4.8714 N   0  0  0  0  0  0  0  0  0  0  0  0
   -2.4760    2.5497    4.8440 N   0  0  0  0  0  0  0  0  0  0  0  0
   -4.2776    4.0636    4.8466 N   0  0  0  0  0  0  0  0  0  0  0  0
   -3.9691    6.3395    4.9496 N   0  0  0  0  0  0  0  0  0  0  0  0
    5.7460   -2.4789   -7.5885 N   0  0  0  0  0  0  0  0  0  0  0  0
    1.2324    0.4109    6.0339 C   0  0  1  0  0  0  0  0  0  0  0  0
    0.5598    1.7586    6.3459 C   0  0  2  0  0  0  0  0  0  0  0  0
    0.9898    0.2416    4.5093 C   0  0  1  0  0  0  0  0  0  0  0  0
    0.6367    2.4897    4.9915 C   0  0  1  0  0  0  0  0  0  0  0  0
   -1.6231   -1.6448   -3.9451 C   0  0  1  0  0  0  0  0  0  0  0  0
   -1.3290   -1.6689   -5.4544 C   0  0  2  0  0  0  0  0  0  0  0  0
   -0.6280   -0.5773   -3.4596 C   0  0  1  0  0  0  0  0  0  0  0  0
    0.1835   -1.2853   -5.5562 C   0  0  1  0  0  0  0  0  0  0  0  0
    0.1583   -1.0176    4.1649 C   0  0  0  0  0  0  0  0  0  0  0  0
   -0.3032   -0.5988   -1.9496 C   0  0  0  0  0  0  0  0  0  0  0  0
   -1.6013    3.5888    4.8723 C   0  0  0  0  0  0  0  0  0  0  0  0
    0.0802    4.9201    4.8741 C   0  0  0  0  0  0  0  0  0  0  0  0
    2.5148   -1.7330   -6.1369 C   0  0  0  0  0  0  0  0  0  0  0  0
    0.9447   -3.4420   -6.5357 C   0  0  0  0  0  0  0  0  0  0  0  0
   -2.0587    4.9077    4.8796 C   0  0  0  0  0  0  0  0  0  0  0  0
    3.5871   -2.5109   -6.6502 C   0  0  0  0  0  0  0  0  0  0  0  0
    1.9417   -4.2854   -7.0485 C   0  0  0  0  0  0  0  0  0  0  0  0
   -3.4462    5.1402    4.8887 C   0  0  0  0  0  0  0  0  0  0  0  0
    3.2563   -3.8093   -7.0972 C   0  0  0  0  0  0  0  0  0  0  0  0
   -3.8138    2.7850    4.8227 C   0  0  0  0  0  0  0  0  0  0  0  0
    4.8983   -2.0444   -6.7238 C   0  0  0  0  0  0  0  0  0  0  0  0
    0.7768   -0.3766    6.6420 H   0  0  0  0  0  0  0  0  0  0  0  0
   -0.4845    1.5795    6.6213 H   0  0  0  0  0  0  0  0  0  0  0  0
    1.9442    0.1808    3.9745 H   0  0  0  0  0  0  0  0  0  0  0  0
    1.6681    2.8246    4.8181 H   0  0  0  0  0  0  0  0  0  0  0  0
   -1.3746   -2.6167   -3.5050 H   0  0  0  0  0  0  0  0  0  0  0  0
   -1.6176   -2.6443   -5.8376 H   0  0  0  0  0  0  0  0  0  0  0  0
   -0.9805    0.4262   -3.7282 H   0  0  0  0  0  0  0  0  0  0  0  0
    0.2401   -0.3692   -6.1562 H   0  0  0  0  0  0  0  0  0  0  0  0
    0.6990   -1.8997    4.5226 H   0  0  0  0  0  0  0  0  0  0  0  0
   -0.7926   -0.9505    4.7035 H   0  0  0  0  0  0  0  0  0  0  0  0
    0.4024    0.2114   -1.7400 H   0  0  0  0  0  0  0  0  0  0  0  0
    0.1910   -1.5461   -1.7094 H   0  0  0  0  0  0  0  0  0  0  0  0
    2.9373   -0.4845    6.1130 H   0  0  0  0  0  0  0  0  0  0  0  0
    1.0634    1.9065    8.1982 H   0  0  0  0  0  0  0  0  0  0  0  0
   -3.4996   -2.0857   -4.0138 H   0  0  0  0  0  0  0  0  0  0  0  0
   -1.9222   -0.8732   -7.1071 H   0  0  0  0  0  0  0  0  0  0  0  0
    1.0383    5.2783    4.8675 H   0  0  0  0  0  0  0  0  0  0  0  0
    2.7327   -0.7864   -5.8053 H   0  0  0  0  0  0  0  0  0  0  0  0
    0.0146   -3.8507   -6.5350 H   0  0  0  0  0  0  0  0  0  0  0  0
    1.7152   -5.2258   -7.3796 H   0  0  0  0  0  0  0  0  0  0  0  0
    3.9686   -4.4462   -7.4646 H   0  0  0  0  0  0  0  0  0  0  0  0
   -4.4691    2.0036    4.7949 H   0  0  0  0  0  0  0  0  0  0  0  0
   -2.7336   -2.8728    2.4058 H   0  0  0  0  0  0  0  0  0  0  0  0
   -4.8832    6.4571    4.7821 H   0  0  0  0  0  0  0  0  0  0  0  0
   -3.4383    7.0794    5.1725 H   0  0  0  0  0  0  0  0  0  0  0  0
    5.4786   -3.1020   -8.2336 H   0  0  0  0  0  0  0  0  0  0  0  0
    6.6303   -2.1739   -7.5890 H   0  0  0  0  0  0  0  0  0  0  0  0
  1  9  1  0  0  0  0
  1 11  1  0  0  0  0
  1 12  1  0  0  0  0
  1 13  2  0  0  0  0
  2 10  1  0  0  0  0
  2 11  1  0  0  0  0
  2 14  1  0  0  0  0
  2 15  2  0  0  0  0
  3 26  1  0  0  0  0
  3 27  1  0  0  0  0
  4 30  1  0  0  0  0
  4 31  1  0  0  0  0
 24  5  1  0  0  0  0
  5 57  1  0  0  0  0
 25  6  1  0  0  0  0
  6 58  1  0  0  0  0
 28  7  1  0  0  0  0
  7 59  1  0  0  0  0
 29  8  1  0  0  0  0
  8 60  1  0  0  0  0
  9 32  1  0  0  0  0
 10 33  1  0  0  0  0
 12 67  1  0  0  0  0
 16 44  2  0  0  0  0
 27 17  1  0  0  0  0
 17 34  1  0  0  0  0
 17 35  1  0  0  0  0
 31 18  1  0  0  0  0
 18 36  1  0  0  0  0
 18 37  2  0  0  0  0
 19 35  2  0  0  0  0
 19 38  1  0  0  0  0
 20 34  2  0  0  0  0
 20 43  1  0  0  0  0
 21 41  1  0  0  0  0
 21 43  2  0  0  0  0
 22 41  1  0  0  0  0
 22 68  1  0  0  0  0
 22 69  1  0  0  0  0
 23 44  1  0  0  0  0
 23 70  1  0  0  0  0
 23 71  1  0  0  0  0
 24 25  1  0  0  0  0
 24 26  1  0  0  0  0
 24 45  1  0  0  0  0
 25 27  1  0  0  0  0
 25 46  1  0  0  0  0
 26 32  1  0  0  0  0
 26 47  1  0  0  0  0
 27 48  1  0  0  0  0
 28 29  1  0  0  0  0
 28 30  1  0  0  0  0
 28 49  1  0  0  0  0
 29 31  1  0  0  0  0
 29 50  1  0  0  0  0
 30 33  1  0  0  0  0
 30 51  1  0  0  0  0
 31 52  1  0  0  0  0
 32 53  1  0  0  0  0
 32 54  1  0  0  0  0
 33 55  1  0  0  0  0
 33 56  1  0  0  0  0
 34 38  1  0  0  0  0
 35 61  1  0  0  0  0
 36 39  2  0  0  0  0
 36 62  1  0  0  0  0
 37 40  1  0  0  0  0
 37 63  1  0  0  0  0
 38 41  2  0  0  0  0
 39 42  1  0  0  0  0
 39 44  1  0  0  0  0
 40 42  2  0  0  0  0
 40 64  1  0  0  0  0
 42 65  1  0  0  0  0
 43 66  1  0  0  0  0
M  CHG  2  14  -1  18   1
M  END

> <PUBCHEM_BONDANNOTATIONS>
27  17  5
17  34  8
17  35  8
31  18  5
18  36  8
18  37  8
19  35  8
19  38  8
20  34  8
20  43  8
21  41  8
21  43  8
26  32  5
30  33  5
34  38  8
36  39  8
37  40  8
38  41  8
39  42  8
40  42  8
24  5  6
25  6  6
28  7  6
29  8  6

> <StdInChI>
InChI=1S/C21H27N7O14P2/c22-17-12-19(25-7-24-17)28(8-26-12)21-16(32)14(30)11(41-21)6-39-44(36,37)42-43(34,35)38-5-10-13(29)15(31)20(40-10)27-3-1-2-9(4-27)18(23)33/h1-4,7-8,10-11,13-16,20-21,29-32H,5-6H2,(H5-,22,23,24,25,33,34,35,36,37)/t10-,11-,13-,14-,15-,16-,20-,21-/m1/s1

> <StdInChIKey>
BAWFJGJZGIEFAR-NNYOXOHSSA-N

> <AuxInfo>
1/2/N:40,42,37,36,33,32,43,35,39,30,26,38,28,24,29,25,41,44,34,31,27,22,23,21,20,19,18,17,7,5,8,6,16,14,15,12,13,10,9,4,3,11,2,1/E:(34,35)(36,37)/it:im/CRV:27+1,34-1/rA:71cPPOOOOOOOOOOOO-OONN+NNNNNCCCCCCCCCCCCCCCCCCCCCHHHHHHHHHHHHHHHHHHHHHHHHHHH/rB:;;;;;;;s1;s2;s1s2;s1;d1;s2;d2;;;;;;;;;s5;s6s24;s3s24;s3s17s25;s7;s8s28;s4s28;s4s18s29;s9s26;s10s30;s17d20;s17d19;s18;d18;s19s34;d36;s37;s21s22d38;s39d40;s20d21;d16s23s39;s24;s25;s26;s27;s28;s29;s30;s31;s32;s32;s33;s33;s5;s6;s7;s8;s35;s36;s37;s40;s42;s43;s12;s22;s22;s23;s23;/rC:-.872,-2.096,2.1262;-1.5953,-.4405,.2116;.3311,1.4403,4.0635;.5418,-.9048,-4.216;2.6246,.4151,6.3466;1.1624,2.4857,7.4129;-2.9804,-1.3531,-3.6189;-2.1576,-.7463,-6.1636;-.0597,-1.1257,2.8516;-1.4225,-.445,-1.2309;-1.0408,-1.6763,.7471;-2.1588,-2.3027,2.7505;-.1909,-3.3654,2.0998;-.9591,.7436,.741;-3.0116,-.3511,.462;5.3215,-1.1807,-5.9694;-.2565,3.6117,4.9052;1.2124,-2.1773,-6.0799;-.9968,5.7266,4.8714;-2.476,2.5497,4.844;-4.2776,4.0636,4.8466;-3.9691,6.3395,4.9496;5.746,-2.4789,-7.5885;1.2324,.4109,6.0339;.5598,1.7586,6.3459;.9898,.2416,4.5093;.6367,2.4897,4.9915;-1.6231,-1.6448,-3.9451;-1.329,-1.6689,-5.4544;-.628,-.5773,-3.4596;.1835,-1.2853,-5.5562;.1583,-1.0176,4.1649;-.3032,-.5988,-1.9496;-1.6013,3.5888,4.8723;.0802,4.9201,4.8741;2.5148,-1.733,-6.1369;.9447,-3.442,-6.5357;-2.0587,4.9077,4.8796;3.5871,-2.5109,-6.6502;1.9417,-4.2854,-7.0485;-3.4462,5.1402,4.8887;3.2563,-3.8093,-7.0972;-3.8138,2.785,4.8227;4.8983,-2.0444,-6.7238;.7768,-.3766,6.642;-.4845,1.5795,6.6213;1.9442,.1808,3.9745;1.6681,2.8246,4.8181;-1.3746,-2.6167,-3.505;-1.6176,-2.6443,-5.8376;-.9805,.4262,-3.7282;.2401,-.3692,-6.1562;.699,-1.8997,4.5226;-.7926,-.9505,4.7035;.4024,.2114,-1.74;.191,-1.5461,-1.7094;2.9373,-.4845,6.113;1.0634,1.9065,8.1982;-3.4996,-2.0857,-4.0138;-1.9222,-.8732,-7.1071;1.0383,5.2783,4.8675;2.7327,-.7864,-5.8053;.0146,-3.8507,-6.535;1.7152,-5.2258,-7.3796;3.9686,-4.4462,-7.4646;-4.4691,2.0036,4.7949;-2.7336,-2.8728,2.4058;-4.8832,6.4571,4.7821;-3.4383,7.0794,5.1725;5.4786,-3.102,-8.2336;6.6303,-2.1739,-7.589;

> <Formula>
C21 H27 N7 O14 P2

> <Mw>
663.4251

> <SMILES>
[P@](=O)(O[H])(O[P@@](=O)([O-])OC([H])([H])[C@]1([H])[C@]([H])([C@]([H])([C@]([H])([N+]2=C([H])C([H])=C([H])C(C(N([H])[H])=O)=C2[H])O1)O[H])O[H])OC([H])([H])[C@]1([H])[C@]([H])([C@]([H])([C@]([H])(N2C([H])=NC3=C(N([H])[H])N=C([H])N=C23)O1)O[H])O[H]

> <CSID>
5681

$$$$
