5202
  Marvin  12300703363D          

 25 26  0  0  0  0            999 V2000
   -3.5973   -1.2765   -0.3616 O   0  0  0  0  0  0  0  0  0  0  0  0
    0.1986    2.5424   -0.3752 N   0  0  0  0  0  0  0  0  0  0  0  0
    3.0423   -2.3504    1.0873 N   0  0  0  0  0  0  0  0  0  0  0  0
    0.9389    0.4273   -0.3873 C   0  0  0  0  0  0  0  0  0  0  0  0
   -0.4547    0.4187   -0.3809 C   0  0  0  0  0  0  0  0  0  0  0  0
    1.8414   -0.7418   -0.3671 C   0  0  0  0  0  0  0  0  0  0  0  0
   -0.8840    1.7498   -0.3764 C   0  0  0  0  0  0  0  0  0  0  0  0
    1.3017    1.7755   -0.3818 C   0  0  0  0  0  0  0  0  0  0  0  0
    2.1538   -1.1863    1.0791 C   0  0  0  0  0  0  0  0  0  0  0  0
   -1.3826   -0.6389   -0.3708 C   0  0  0  0  0  0  0  0  0  0  0  0
   -2.2544    2.0640   -0.3684 C   0  0  0  0  0  0  0  0  0  0  0  0
   -2.7606   -0.3389   -0.3659 C   0  0  0  0  0  0  0  0  0  0  0  0
   -3.1912    1.0084   -0.3655 C   0  0  0  0  0  0  0  0  0  0  0  0
    2.7685   -0.5011   -0.8928 H   0  0  0  0  0  0  0  0  0  0  0  0
    1.3846   -1.5706   -0.9147 H   0  0  0  0  0  0  0  0  0  0  0  0
    2.2582    2.1343   -0.3761 H   0  0  0  0  0  0  0  0  0  0  0  0
    0.1910    3.5129   -0.3664 H   0  0  0  0  0  0  0  0  0  0  0  0
    1.2378   -1.4581    1.6098 H   0  0  0  0  0  0  0  0  0  0  0  0
    2.6450   -0.3812    1.6304 H   0  0  0  0  0  0  0  0  0  0  0  0
   -1.0601   -1.6091   -0.3655 H   0  0  0  0  0  0  0  0  0  0  0  0
   -2.5623    3.0390   -0.3637 H   0  0  0  0  0  0  0  0  0  0  0  0
   -4.1897    1.2286   -0.3619 H   0  0  0  0  0  0  0  0  0  0  0  0
    3.1722   -2.6186    2.0649 H   0  0  0  0  0  0  0  0  0  0  0  0
    2.5330   -3.1124    0.6347 H   0  0  0  0  0  0  0  0  0  0  0  0
   -3.3302   -2.1172   -0.3640 H   0  0  0  0  0  0  0  0  0  0  0  0
  1 12  1  0  0  0  0
  1 25  1  0  0  0  0
  2  7  1  0  0  0  0
  2  8  1  0  0  0  0
  2 17  1  0  0  0  0
  3  9  1  0  0  0  0
  3 23  1  0  0  0  0
  3 24  1  0  0  0  0
  4  5  1  0  0  0  0
  4  6  1  0  0  0  0
  4  8  2  0  0  0  0
  5  7  2  0  0  0  0
  5 10  1  0  0  0  0
  6  9  1  0  0  0  0
  6 14  1  0  0  0  0
  6 15  1  0  0  0  0
  7 11  1  0  0  0  0
  8 16  1  0  0  0  0
  9 18  1  0  0  0  0
  9 19  1  0  0  0  0
 10 12  2  0  0  0  0
 10 20  1  0  0  0  0
 11 13  2  0  0  0  0
 11 21  1  0  0  0  0
 12 13  1  0  0  0  0
 13 22  1  0  0  0  0
M  END

> <PUBCHEM_BONDANNOTATIONS>
10  12  8
11  13  8
12  13  8
2  7  8
2  8  8
4  5  8
4  8  8
5  10  8
5  7  8
7  11  8

> <StdInChI>
InChI=1S/C10H12N2O/c11-4-3-7-6-12-10-2-1-8(13)5-9(7)10/h1-2,5-6,12-13H,3-4,11H2

> <StdInChIKey>
QZAYGJVTTNCVMB-UHFFFAOYSA-N

> <AuxInfo>
1/0/N:13,11,6,9,10,8,4,12,5,7,3,2,1/rA:25nONNCCCCCCCCCCHHHHHHHHHHHH/rB:;;;s4;s4;s2d5;s2d4;s3s6;s5;s7;s1d10;d11s12;s6;s6;s8;s2;s9;s9;s10;s11;s13;s3;s3;s1;/rC:-3.5973,-1.2765,-.3616;.1986,2.5424,-.3752;3.0423,-2.3504,1.0873;.9389,.4273,-.3873;-.4547,.4187,-.3809;1.8414,-.7418,-.3671;-.884,1.7498,-.3764;1.3017,1.7755,-.3818;2.1538,-1.1863,1.0791;-1.3826,-.6389,-.3708;-2.2544,2.064,-.3684;-2.7606,-.3389,-.3659;-3.1912,1.0084,-.3655;2.7685,-.5011,-.8928;1.3846,-1.5706,-.9147;2.2582,2.1343,-.3761;.191,3.5129,-.3664;1.2378,-1.4581,1.6098;2.645,-.3812,1.6304;-1.0601,-1.6091,-.3655;-2.5623,3.039,-.3637;-4.1897,1.2286,-.3619;3.1722,-2.6186,2.0649;2.533,-3.1124,.6347;-3.3302,-2.1172,-.364;

> <Formula>
C10 H12 N2 O

> <Mw>
176.2151

> <SMILES>
O([H])C1C([H])=C([H])C2=C(C=1[H])C(=C([H])N2[H])C([H])([H])C([H])([H])N([H])[H]

> <CSID>
5013

$$$$
