7172
  Marvin  12300703363D          

 25 25  0  0  1  0            999 V2000
    0.1655   -1.8584   -1.4252 O   0  0  0  0  0  0  0  0  0  0  0  0
    2.2648    4.0211   -0.6870 O   0  0  0  0  0  0  0  0  0  0  0  0
   -1.5119   -2.5179    0.8211 N   0  0  0  0  0  0  0  0  0  0  0  0
   -0.5186   -0.8173   -0.7248 C   0  0  1  0  0  0  0  0  0  0  0  0
   -0.7765   -1.2409    0.7403 C   0  0  0  0  0  0  0  0  0  0  0  0
    0.2259    0.4715   -0.7468 C   0  0  0  0  0  0  0  0  0  0  0  0
    1.6399    0.4969   -0.7182 C   0  0  0  0  0  0  0  0  0  0  0  0
   -0.4670    1.7052   -0.7356 C   0  0  0  0  0  0  0  0  0  0  0  0
    2.3426    1.7139   -0.7002 C   0  0  0  0  0  0  0  0  0  0  0  0
    0.2312    2.9271   -0.7107 C   0  0  0  0  0  0  0  0  0  0  0  0
    1.6389    2.9328   -0.6997 C   0  0  0  0  0  0  0  0  0  0  0  0
   -1.7965   -2.9843    2.1897 C   0  0  0  0  0  0  0  0  0  0  0  0
   -1.4785   -0.7097   -1.2393 H   0  0  0  0  0  0  0  0  0  0  0  0
   -1.3572   -0.4620    1.2445 H   0  0  0  0  0  0  0  0  0  0  0  0
    0.1807   -1.3466    1.2601 H   0  0  0  0  0  0  0  0  0  0  0  0
    2.1787   -0.3726   -0.7020 H   0  0  0  0  0  0  0  0  0  0  0  0
   -1.4905    1.7279   -0.7340 H   0  0  0  0  0  0  0  0  0  0  0  0
   -2.4103   -2.3794    0.3530 H   0  0  0  0  0  0  0  0  0  0  0  0
    3.3655    1.7025   -0.6833 H   0  0  0  0  0  0  0  0  0  0  0  0
   -0.2923    3.8063   -0.6975 H   0  0  0  0  0  0  0  0  0  0  0  0
    0.3415   -1.5016   -2.3216 H   0  0  0  0  0  0  0  0  0  0  0  0
   -2.3416   -3.9257    2.1306 H   0  0  0  0  0  0  0  0  0  0  0  0
   -0.8698   -3.1562    2.7408 H   0  0  0  0  0  0  0  0  0  0  0  0
   -2.4102   -2.2611    2.7304 H   0  0  0  0  0  0  0  0  0  0  0  0
    3.1454    4.0288   -0.6848 H   0  0  0  0  0  0  0  0  0  0  0  0
  1  4  1  0  0  0  0
  1 21  1  0  0  0  0
  2 11  1  0  0  0  0
  2 25  1  0  0  0  0
  3  5  1  0  0  0  0
  3 12  1  0  0  0  0
  3 18  1  0  0  0  0
  4  5  1  0  0  0  0
  4  6  1  0  0  0  0
  4 13  1  0  0  0  0
  5 14  1  0  0  0  0
  5 15  1  0  0  0  0
  6  7  2  0  0  0  0
  6  8  1  0  0  0  0
  7  9  1  0  0  0  0
  7 16  1  0  0  0  0
  8 10  2  0  0  0  0
  8 17  1  0  0  0  0
  9 11  2  0  0  0  0
  9 19  1  0  0  0  0
 10 11  1  0  0  0  0
 10 20  1  0  0  0  0
 12 22  1  0  0  0  0
 12 23  1  0  0  0  0
 12 24  1  0  0  0  0
M  END

> <PUBCHEM_BONDANNOTATIONS>
4  1  3
10  11  8
6  7  8
6  8  8
7  9  8
8  10  8
9  11  8

> <StdInChI>
InChI=1S/C9H13NO2/c1-10-6-9(12)7-2-4-8(11)5-3-7/h2-5,9-12H,6H2,1H3/t9-/m0/s1

> <StdInChIKey>
YRCWQPVGYLYSOX-VIFPVBQESA-N

> <AuxInfo>
1/0/N:12,7,8,9,10,5,6,11,4,3,2,1/E:(2,3)(4,5)/it:im/rA:25cOONCCCCCCCCCHHHHHHHHHHHHH/rB:;;s1;s3s4;s4;d6;s6;s7;d8;s2d9s10;s3;s4;s5;s5;s7;s8;s3;s9;s10;s1;s12;s12;s12;s2;/rC:.1655,-1.8584,-1.4252;2.2648,4.0211,-.687;-1.5119,-2.5179,.8211;-.5186,-.8173,-.7248;-.7765,-1.2409,.7403;.2259,.4715,-.7468;1.6399,.4969,-.7182;-.467,1.7052,-.7356;2.3426,1.7139,-.7002;.2312,2.9271,-.7107;1.6389,2.9328,-.6997;-1.7965,-2.9843,2.1897;-1.4785,-.7097,-1.2393;-1.3572,-.462,1.2445;.1807,-1.3466,1.2601;2.1787,-.3726,-.702;-1.4905,1.7279,-.734;-2.4103,-2.3794,.353;3.3655,1.7025,-.6833;-.2923,3.8063,-.6975;.3415,-1.5016,-2.3216;-2.3416,-3.9257,2.1306;-.8698,-3.1562,2.7408;-2.4102,-2.2611,2.7304;3.1454,4.0288,-.6848;

> <Formula>
C9 H13 N O2

> <Mw>
167.205

> <SMILES>
O([H])[C@]([H])(C1C([H])=C([H])C(=C([H])C=1[H])O[H])C([H])([H])[N@]([H])C([H])([H])[H]

> <CSID>
6904

$$$$
