1150
  Marvin  12300703363D          

 24 25  0  0  0  0            999 V2000
    0.0626    2.4404   -0.3857 N   0  0  0  0  0  0  0  0  0  0  0  0
    2.8919   -2.4314    1.0649 N   0  0  0  0  0  0  0  0  0  0  0  0
    0.7931    0.3277   -0.4013 C   0  0  0  0  0  0  0  0  0  0  0  0
   -0.5995    0.3170   -0.3924 C   0  0  0  0  0  0  0  0  0  0  0  0
    1.6888   -0.8425   -0.3838 C   0  0  0  0  0  0  0  0  0  0  0  0
   -1.0229    1.6502   -0.3871 C   0  0  0  0  0  0  0  0  0  0  0  0
    1.1648    1.6730   -0.3916 C   0  0  0  0  0  0  0  0  0  0  0  0
    1.9986   -1.2705    1.0656 C   0  0  0  0  0  0  0  0  0  0  0  0
   -1.5287   -0.7403   -0.3832 C   0  0  0  0  0  0  0  0  0  0  0  0
   -2.3925    1.9668   -0.3816 C   0  0  0  0  0  0  0  0  0  0  0  0
   -2.9029   -0.4313   -0.3801 C   0  0  0  0  0  0  0  0  0  0  0  0
   -3.3320    0.9137   -0.3804 C   0  0  0  0  0  0  0  0  0  0  0  0
    2.6155   -0.6068   -0.9123 H   0  0  0  0  0  0  0  0  0  0  0  0
    1.2222   -1.6725   -0.9209 H   0  0  0  0  0  0  0  0  0  0  0  0
    2.1249    2.0239   -0.3841 H   0  0  0  0  0  0  0  0  0  0  0  0
    0.0557    3.4106   -0.3786 H   0  0  0  0  0  0  0  0  0  0  0  0
    1.0796   -1.5312    1.5980 H   0  0  0  0  0  0  0  0  0  0  0  0
    2.4911   -0.4581    1.6052 H   0  0  0  0  0  0  0  0  0  0  0  0
   -1.2193   -1.7146   -0.3789 H   0  0  0  0  0  0  0  0  0  0  0  0
   -2.7003    2.9411   -0.3791 H   0  0  0  0  0  0  0  0  0  0  0  0
   -3.5891   -1.1889   -0.3782 H   0  0  0  0  0  0  0  0  0  0  0  0
   -4.3318    1.1238   -0.3796 H   0  0  0  0  0  0  0  0  0  0  0  0
    3.0401   -2.7043    2.0380 H   0  0  0  0  0  0  0  0  0  0  0  0
    2.3901   -3.1957    0.6073 H   0  0  0  0  0  0  0  0  0  0  0  0
  1  6  1  0  0  0  0
  1  7  1  0  0  0  0
  1 16  1  0  0  0  0
  2  8  1  0  0  0  0
  2 23  1  0  0  0  0
  2 24  1  0  0  0  0
  3  4  1  0  0  0  0
  3  5  1  0  0  0  0
  3  7  2  0  0  0  0
  4  6  1  0  0  0  0
  4  9  2  0  0  0  0
  5  8  1  0  0  0  0
  5 13  1  0  0  0  0
  5 14  1  0  0  0  0
  6 10  2  0  0  0  0
  7 15  1  0  0  0  0
  8 17  1  0  0  0  0
  8 18  1  0  0  0  0
  9 11  1  0  0  0  0
  9 19  1  0  0  0  0
 10 12  1  0  0  0  0
 10 20  1  0  0  0  0
 11 12  2  0  0  0  0
 11 21  1  0  0  0  0
 12 22  1  0  0  0  0
M  END

> <PUBCHEM_BONDANNOTATIONS>
1  6  8
1  7  8
10  12  8
11  12  8
3  4  8
3  7  8
4  6  8
4  9  8
6  10  8
9  11  8

> <StdInChI>
InChI=1S/C10H12N2/c11-6-5-8-7-12-10-4-2-1-3-9(8)10/h1-4,7,12H,5-6,11H2

> <StdInChIKey>
APJYDQYYACXCRM-UHFFFAOYSA-N

> <AuxInfo>
1/0/N:11,12,9,10,5,8,7,3,4,6,2,1/rA:24nNNCCCCCCCCCCHHHHHHHHHHHH/rB:;;s3;s3;s1s4;s1d3;s2s5;d4;d6;s9;s10d11;s5;s5;s7;s1;s8;s8;s9;s10;s11;s12;s2;s2;/rC:.0626,2.4404,-.3857;2.8919,-2.4314,1.0649;.7931,.3277,-.4013;-.5995,.317,-.3924;1.6888,-.8425,-.3838;-1.0229,1.6502,-.3871;1.1648,1.673,-.3916;1.9986,-1.2705,1.0656;-1.5287,-.7403,-.3832;-2.3925,1.9668,-.3816;-2.9029,-.4313,-.3801;-3.332,.9137,-.3804;2.6155,-.6068,-.9123;1.2222,-1.6725,-.9209;2.1249,2.0239,-.3841;.0557,3.4106,-.3786;1.0796,-1.5312,1.598;2.4911,-.4581,1.6052;-1.2193,-1.7146,-.3789;-2.7003,2.9411,-.3791;-3.5891,-1.1889,-.3782;-4.3318,1.1238,-.3796;3.0401,-2.7043,2.038;2.3901,-3.1957,.6073;

> <Formula>
C10 H12 N2

> <Mw>
160.2157

> <SMILES>
N1([H])C([H])=C(C([H])([H])C([H])([H])N([H])[H])C2=C([H])C([H])=C([H])C([H])=C12

> <CSID>
1118

$$$$
