
  1019              3D

 55 59  0  0  1  0  0  0  0  0999 V2000
    5.0398   -7.5565    7.3050 C   0  0  0  0  0  0  0  0  0  0  0  0
    6.2931   -7.9334    6.7194 O   0  0  0  0  0  0  0  0  0  0  0  0
    6.1196   -8.2438    5.4051 C   0  0  0  0  0  0  0  0  0  0  0  0
    6.2215   -7.2367    4.4493 C   0  0  0  0  0  0  0  0  0  0  0  0
    6.0265   -7.5208    3.0912 C   0  0  0  0  0  0  0  0  0  0  0  0
    6.0047   -6.3290    2.1990 C   0  0  0  0  0  0  0  0  0  0  0  0
    5.1824   -5.4377    2.4503 O   0  0  0  0  0  0  0  0  0  0  0  0
    6.9443   -6.2870    1.1802 N   0  0  0  0  0  0  0  0  0  0  0  0
    8.3617   -6.6259    1.3564 C   0  0  0  0  0  0  0  0  0  0  0  0
    8.8598   -6.9552   -0.0539 C   0  0  0  0  0  0  0  0  0  0  0  0
    7.5948   -6.9082   -0.9533 C   0  0  0  0  0  0  0  0  0  0  0  0
    6.6688   -5.9035   -0.2248 C   0  0  0  0  0  0  0  0  0  0  0  0
    7.2218   -4.4850   -0.5114 C   0  0  0  0  0  0  0  0  0  0  0  0
    5.1957   -6.0145   -0.5590 C   0  0  0  0  0  0  0  0  0  0  0  0
    4.4491   -7.0874   -0.7960 N   0  0  0  0  0  0  0  0  0  0  0  0
    3.1150   -6.6766   -0.6563 C   0  0  0  0  0  0  0  0  0  0  0  0
    3.0772   -5.3253   -0.3517 C   0  0  0  0  0  0  0  0  0  0  0  0
    4.3800   -4.9041   -0.4008 N   0  0  0  0  0  0  0  0  0  0  0  0
    1.9163   -4.6088   -0.0691 C   0  0  0  0  0  0  0  0  0  0  0  0
    0.7226   -5.3004   -0.1198 C   0  0  0  0  0  0  0  0  0  0  0  0
    0.6980   -6.6516   -0.4580 C   0  0  0  0  0  0  0  0  0  0  0  0
   -0.8674   -7.4047   -0.4515 Cl  0  0  0  0  0  0  0  0  0  0  0  0
    1.8838   -7.3891   -0.7474 C   0  0  0  0  0  0  0  0  0  0  0  0
    1.7727   -8.8438   -1.1117 C   0  0  0  0  0  0  0  0  0  0  0  0
    5.8128   -8.8596    2.7233 C   0  0  0  0  0  0  0  0  0  0  0  0
    5.7282   -9.8659    3.7023 C   0  0  0  0  0  0  0  0  0  0  0  0
    5.8807   -9.5617    5.0458 C   0  0  0  0  0  0  0  0  0  0  0  0
    5.7105   -9.2997    1.3974 N   0  0  0  0  0  0  0  0  0  0  0  0
    4.5042   -9.6384    0.8682 N   0  0  0  0  0  0  0  0  0  0  0  0
    4.8613  -10.4364   -0.1407 C   0  0  0  0  0  0  0  0  0  0  0  0
    6.2507  -10.5566   -0.1913 C   0  0  0  0  0  0  0  0  0  0  0  0
    6.8033   -9.8384    0.7907 N   0  0  0  0  0  0  0  0  0  0  0  0
    5.0590   -7.8258    8.3632 H   0  0  0  0  0  0  0  0  0  0  0  0
    4.9245   -6.4748    7.2427 H   0  0  0  0  0  0  0  0  0  0  0  0
    4.1886   -8.0470    6.8244 H   0  0  0  0  0  0  0  0  0  0  0  0
    6.4375   -6.2189    4.7787 H   0  0  0  0  0  0  0  0  0  0  0  0
    5.8144  -10.3436    5.7958 H   0  0  0  0  0  0  0  0  0  0  0  0
    8.8797   -5.7508    1.7897 H   0  0  0  0  0  0  0  0  0  0  0  0
    8.4783   -7.4469    2.0595 H   0  0  0  0  0  0  0  0  0  0  0  0
    9.6142   -6.2267   -0.3721 H   0  0  0  0  0  0  0  0  0  0  0  0
    9.3486   -7.9375   -0.0924 H   0  0  0  0  0  0  0  0  0  0  0  0
    7.8270   -6.6550   -1.9957 H   0  0  0  0  0  0  0  0  0  0  0  0
    7.1513   -7.9086   -0.9896 H   0  0  0  0  0  0  0  0  0  0  0  0
    7.1153   -4.2798   -1.5678 H   0  0  0  0  0  0  0  0  0  0  0  0
    6.7341   -3.6760    0.0537 H   0  0  0  0  0  0  0  0  0  0  0  0
    8.2915   -4.4038   -0.3048 H   0  0  0  0  0  0  0  0  0  0  0  0
    4.6740   -3.9544   -0.1988 H   0  0  0  0  0  0  0  0  0  0  0  0
    1.9432   -3.5600    0.1910 H   0  0  0  0  0  0  0  0  0  0  0  0
   -0.1996   -4.7788    0.1184 H   0  0  0  0  0  0  0  0  0  0  0  0
    2.6886   -9.1835   -1.5929 H   0  0  0  0  0  0  0  0  0  0  0  0
    1.5906   -9.4364   -0.2167 H   0  0  0  0  0  0  0  0  0  0  0  0
    0.9582   -9.0191   -1.8193 H   0  0  0  0  0  0  0  0  0  0  0  0
    5.5566  -10.9021    3.4249 H   0  0  0  0  0  0  0  0  0  0  0  0
    4.1082  -10.8878   -0.7678 H   0  0  0  0  0  0  0  0  0  0  0  0
    6.8704  -11.1242   -0.8641 H   0  0  0  0  0  0  0  0  0  0  0  0
  1  2  1  0  0  0  0
  2  3  1  0  0  0  0
  3  4  2  0  0  0  0
  3 27  1  0  0  0  0
  4  5  1  0  0  0  0
  5  6  1  0  0  0  0
  5 25  2  0  0  0  0
  6  7  2  0  0  0  0
  6  8  1  0  0  0  0
  8  9  1  0  0  0  0
  8 12  1  0  0  0  0
  9 10  1  0  0  0  0
 10 11  1  0  0  0  0
 11 12  1  0  0  0  0
 12 13  1  0  0  0  0
 12 14  1  0  0  0  0
 14 15  2  0  0  0  0
 14 18  1  0  0  0  0
 15 16  1  0  0  0  0
 16 17  2  0  0  0  0
 16 23  1  0  0  0  0
 17 18  1  0  0  0  0
 17 19  1  0  0  0  0
 19 20  2  0  0  0  0
 20 21  1  0  0  0  0
 21 22  1  0  0  0  0
 21 23  2  0  0  0  0
 23 24  1  0  0  0  0
 25 26  1  0  0  0  0
 25 28  1  0  0  0  0
 26 27  2  0  0  0  0
 28 29  1  0  0  0  0
 28 32  1  0  0  0  0
 29 30  2  0  0  0  0
 30 31  1  0  0  0  0
 31 32  2  0  0  0  0
  1 33  1  0  0  0  0
  1 34  1  0  0  0  0
  1 35  1  0  0  0  0
  4 36  1  0  0  0  0
 27 37  1  0  0  0  0
  9 38  1  0  0  0  0
  9 39  1  0  0  0  0
 10 40  1  0  0  0  0
 10 41  1  0  0  0  0
 11 42  1  0  0  0  0
 11 43  1  0  0  0  0
 13 44  1  0  0  0  0
 13 45  1  0  0  0  0
 13 46  1  0  0  0  0
 18 47  1  0  0  0  0
 19 48  1  0  0  0  0
 20 49  1  0  0  0  0
 24 50  1  0  0  0  0
 24 51  1  0  0  0  0
 24 52  1  0  0  0  0
 26 53  1  0  0  0  0
 30 54  1  0  0  0  0
 31 55  1  0  0  0  0
M  END

> <energy>
138.54130521732699

> <StdInChI>
InChI=1S/C23H23ClN6O2/c1-14-17(24)6-7-18-20(14)28-22(27-18)23(2)9-4-12-29(23)21(31)16-13-15(32-3)5-8-19(16)30-25-10-11-26-30/h5-8,10-11,13H,4,9,12H2,1-3H3,(H,27,28)/t23-/m0/s1

> <StdInChIKey>
NBGABHGMJVIVBW-QHCPKHFHSA-N

> <AuxInfo>
1/1/N:24,13,1,10,27,20,19,26,11,30,31,9,4,23,3,5,21,17,25,16,6,14,12,22,29,32,18,15,8,28,7,2/E:(10,11)(25,26)/it:im/rA:55cCOCCCCONCCCCCCNCCNCCCClCCCCCNNCCNHHHHHHHHHHHHHHHHHHHHHHH/rB:s1;s2;d3;s4;s5;d6;s6;s8;s9;s10;s8s11;s12;s12;d14;s15;d16;s14s17;s17;d19;s20;s21;s16d21;s23;d5;s25;s3d26;s25;s28;d29;s30;s28d31;s1;s1;s1;s4;s27;s9;s9;s10;s10;s11;s11;s13;s13;s13;s18;s19;s20;s24;s24;s24;s26;s30;s31;/rC:5.0398,-7.5565,7.305;6.2931,-7.9334,6.7194;6.1196,-8.2438,5.4051;6.2215,-7.2367,4.4493;6.0265,-7.5208,3.0912;6.0047,-6.329,2.199;5.1824,-5.4377,2.4503;6.9443,-6.287,1.1802;8.3617,-6.6259,1.3564;8.8598,-6.9552,-.0539;7.5948,-6.9082,-.9533;6.6688,-5.9035,-.2248;7.2218,-4.485,-.5114;5.1957,-6.0145,-.559;4.4491,-7.0874,-.796;3.115,-6.6766,-.6563;3.0772,-5.3253,-.3517;4.38,-4.9041,-.4008;1.9163,-4.6088,-.0691;.7226,-5.3004,-.1198;.698,-6.6516,-.458;-.8674,-7.4047,-.4515;1.8838,-7.3891,-.7474;1.7727,-8.8438,-1.1117;5.8128,-8.8596,2.7233;5.7282,-9.8659,3.7023;5.8807,-9.5617,5.0458;5.7105,-9.2997,1.3974;4.5042,-9.6384,.8682;4.8613,-10.4364,-.1407;6.2507,-10.5566,-.1913;6.8033,-9.8384,.7907;5.059,-7.8258,8.3632;4.9245,-6.4748,7.2427;4.1886,-8.047,6.8244;6.4375,-6.2189,4.7787;5.8144,-10.3436,5.7958;8.8797,-5.7508,1.7897;8.4783,-7.4469,2.0595;9.6142,-6.2267,-.3721;9.3486,-7.9375,-.0924;7.827,-6.655,-1.9957;7.1513,-7.9086,-.9896;7.1153,-4.2798,-1.5678;6.7341,-3.676,.0537;8.2915,-4.4038,-.3048;4.674,-3.9544,-.1988;1.9432,-3.56,.191;-.1996,-4.7788,.1184;2.6886,-9.1835,-1.5929;1.5906,-9.4364,-.2167;.9582,-9.0191,-1.8193;5.5566,-10.9021,3.4249;4.1082,-10.8878,-.7678;6.8704,-11.1242,-.8641;

> <Formula>
C23 H23 Cl N6 O2

> <Mw>
450.9207

> <SMILES>
C([H])([H])([H])OC1C([H])=C([H])C(N2N=C([H])C([H])=N2)=C(C(N2[C@@](C3N([H])C4C([H])=C([H])C(=C(C([H])([H])[H])C=4N=3)Cl)(C([H])([H])[H])C([H])([H])C([H])([H])C2([H])[H])=O)C=1[H]

> <CSID>
64854514

$$$$
